MODEL 1
REMARK VINA RESULT:      -7.2      0.000      0.000
REMARK  10 active torsions:
REMARK  status: ('A' for Active; 'I' for Inactive)
REMARK    1  A    between atoms: O_4  and  C_21 
REMARK    2  A    between atoms: O_4  and  C_26 
REMARK    3  A    between atoms: O_5  and  C_22 
REMARK    4  A    between atoms: O_8  and  N_12 
REMARK    5  A    between atoms: CA_16  and  N_11 
REMARK       I    between atoms: N_11  and  C_23 
REMARK    6  A    between atoms: N_14  and  C_29 
REMARK    7  A    between atoms: CA_18  and  C_22 
REMARK    8  A    between atoms: C_19  and  C_21 
REMARK    9  A    between atoms: C_23  and  C_24 
REMARK   10  A    between atoms: C_24  and  C_25 
ROOT
ATOM      1  S   UNL d   1      38.113 -10.871  -3.690  0.00  0.00    -0.136 SA
ATOM      2  O   UNL d   1      39.947  -8.654  -0.710  0.00  0.00    -0.271 OA
ATOM      3  N   UNL d   1      38.795  -8.497  -2.717  0.00  0.00    -0.293 N 
ATOM      4  C   UNL d   1      39.172  -9.392  -3.801  0.00  0.00     0.187 C 
ATOM      5  CA  UNL d   1      40.584  -9.460  -3.111  0.00  0.00     0.211 C 
ATOM      6  C   UNL d   1      39.798  -8.881  -1.876  0.00  0.00     0.251 C 
ATOM      7  CA  UNL d   1      37.507  -8.107  -2.457  0.00  0.00     0.117 C 
ATOM      8  C   UNL d   1      36.443  -8.734  -3.036  0.00  0.00    -0.013 C 
ATOM      9  C   UNL d   1      36.586  -9.920  -3.974  0.00  0.00     0.115 C 
ENDROOT
BRANCH   5  10
ATOM     10  N   UNL d   1      41.277 -10.782  -3.149  0.00  0.00    -0.339 N 
ATOM     11  C   UNL d   1      42.667 -10.818  -3.364  0.00  0.00     0.275 C 
ATOM     12  O   UNL d   1      43.275 -11.881  -3.415  0.00  0.00    -0.266 OA
ATOM     13  H   UNL d   1      40.847 -11.613  -2.741  0.00  0.00     0.163 HD
BRANCH  11  14
ATOM     14  C   UNL d   1      43.385  -9.468  -3.601  0.00  0.00     0.180 C 
ATOM     15  N   UNL d   1      43.485  -8.827  -4.735  0.00  0.00    -0.126 NA
BRANCH  15  16
ATOM     16  O   UNL d   1      42.937  -9.453  -5.852  0.00  0.00    -0.261 OA
ATOM     17  C   UNL d   1      41.986  -8.543  -6.425  0.00  0.00     0.240 C 
ENDBRANCH  15  16
BRANCH  14  18
ATOM     18  C   UNL d   1      44.100  -8.805  -2.511  0.00  0.00     0.102 A 
ATOM     19  N   UNL d   1      43.670  -7.592  -1.988  0.00  0.00    -0.222 NA
ATOM     20  C   UNL d   1      44.354  -7.300  -0.909  0.00  0.00     0.164 A 
ATOM     21  S   UNL d   1      45.603  -8.399  -0.494  0.00  0.00    -0.062 SA
ATOM     22  C   UNL d   1      45.175  -9.366  -1.835  0.00  0.00     0.087 A 
BRANCH  20  23
ATOM     23  N   UNL d   1      44.082  -6.234  -0.151  0.00  0.00    -0.378 N 
ATOM     24  H   UNL d   1      44.296  -6.259   0.835  0.00  0.00     0.158 HD
ATOM     25  H   UNL d   1      44.147  -5.323  -0.591  0.00  0.00     0.158 HD
ENDBRANCH  20  23
ENDBRANCH  14  18
ENDBRANCH  11  14
ENDBRANCH   5  10
BRANCH   7  26
ATOM     26  C   UNL d   1      37.305  -6.852  -1.628  0.00  0.00     0.194 C 
ATOM     27  OXT UNL d   1      36.955  -6.858  -0.456  0.00  0.00    -0.645 OA
BRANCH  26  28
ATOM     28  O   UNL d   1      37.392  -5.692  -2.315  0.00  0.00    -0.772 OA
ATOM     29  H   UNL d   1      36.658  -5.523  -2.945  0.00  0.00     0.167 HD
ENDBRANCH  26  28
ENDBRANCH   7  26
BRANCH   8  30
ATOM     30  C   UNL d   1      34.991  -8.387  -2.749  0.00  0.00     0.216 C 
BRANCH  30  31
ATOM     31  O   UNL d   1      34.139  -8.972  -3.750  0.00  0.00    -0.317 OA
BRANCH  31  32
ATOM     32  C   UNL d   1      33.214  -8.151  -4.310  0.00  0.00     0.255 C 
ATOM     33  O   UNL d   1      32.927  -7.030  -3.917  0.00  0.00    -0.266 OA
ATOM     34  C   UNL d   1      32.598  -8.812  -5.505  0.00  0.00     0.126 C 
ENDBRANCH  31  32
ENDBRANCH  30  31
ENDBRANCH   8  30
TORSDOF 10
ENDMDL
MODEL 2
REMARK VINA RESULT:      -7.1      1.017      1.214
REMARK  10 active torsions:
REMARK  status: ('A' for Active; 'I' for Inactive)
REMARK    1  A    between atoms: O_4  and  C_21 
REMARK    2  A    between atoms: O_4  and  C_26 
REMARK    3  A    between atoms: O_5  and  C_22 
REMARK    4  A    between atoms: O_8  and  N_12 
REMARK    5  A    between atoms: CA_16  and  N_11 
REMARK       I    between atoms: N_11  and  C_23 
REMARK    6  A    between atoms: N_14  and  C_29 
REMARK    7  A    between atoms: CA_18  and  C_22 
REMARK    8  A    between atoms: C_19  and  C_21 
REMARK    9  A    between atoms: C_23  and  C_24 
REMARK   10  A    between atoms: C_24  and  C_25 
ROOT
ATOM      1  S   UNL d   1      38.982  -9.932  -5.082  0.00  0.00    -0.136 SA
ATOM      2  O   UNL d   1      38.956  -9.466  -0.965  0.00  0.00    -0.271 OA
ATOM      3  N   UNL d   1      39.096  -8.318  -2.976  0.00  0.00    -0.293 N 
ATOM      4  C   UNL d   1      39.975  -8.843  -4.011  0.00  0.00     0.187 C 
ATOM      5  CA  UNL d   1      40.777  -9.517  -2.837  0.00  0.00     0.211 C 
ATOM      6  C   UNL d   1      39.462  -9.222  -2.023  0.00  0.00     0.251 C 
ATOM      7  CA  UNL d   1      37.889  -7.719  -3.227  0.00  0.00     0.117 C 
ATOM      8  C   UNL d   1      37.296  -7.800  -4.453  0.00  0.00    -0.013 C 
ATOM      9  C   UNL d   1      37.890  -8.575  -5.616  0.00  0.00     0.115 C 
ENDROOT
BRANCH   5  10
ATOM     10  N   UNL d   1      41.334 -10.874  -3.111  0.00  0.00    -0.339 N 
ATOM     11  C   UNL d   1      42.668 -10.990  -3.543  0.00  0.00     0.275 C 
ATOM     12  O   UNL d   1      43.164 -12.083  -3.792  0.00  0.00    -0.266 OA
ATOM     13  H   UNL d   1      40.898 -11.711  -2.722  0.00  0.00     0.163 HD
BRANCH  11  14
ATOM     14  C   UNL d   1      43.461  -9.679  -3.759  0.00  0.00     0.180 C 
ATOM     15  N   UNL d   1      43.593  -9.023  -4.881  0.00  0.00    -0.126 NA
BRANCH  15  16
ATOM     16  O   UNL d   1      43.006  -9.596  -6.007  0.00  0.00    -0.261 OA
ATOM     17  C   UNL d   1      42.379  -8.537  -6.745  0.00  0.00     0.240 C 
ENDBRANCH  15  16
BRANCH  14  18
ATOM     18  C   UNL d   1      44.218  -9.078  -2.660  0.00  0.00     0.102 A 
ATOM     19  N   UNL d   1      43.958  -7.788  -2.216  0.00  0.00    -0.222 NA
ATOM     20  C   UNL d   1      44.626  -7.549  -1.115  0.00  0.00     0.164 A 
ATOM     21  S   UNL d   1      45.666  -8.804  -0.582  0.00  0.00    -0.062 SA
ATOM     22  C   UNL d   1      45.158  -9.762  -1.902  0.00  0.00     0.087 A 
BRANCH  20  23
ATOM     23  N   UNL d   1      44.488  -6.416  -0.420  0.00  0.00    -0.378 N 
ATOM     24  H   UNL d   1      43.803  -5.735  -0.713  0.00  0.00     0.158 HD
ATOM     25  H   UNL d   1      44.664  -6.459   0.576  0.00  0.00     0.158 HD
ENDBRANCH  20  23
ENDBRANCH  14  18
ENDBRANCH  11  14
ENDBRANCH   5  10
BRANCH   7  26
ATOM     26  C   UNL d   1      37.306  -6.828  -2.147  0.00  0.00     0.194 C 
ATOM     27  OXT UNL d   1      37.595  -5.647  -2.007  0.00  0.00    -0.645 OA
BRANCH  26  28
ATOM     28  O   UNL d   1      36.543  -7.462  -1.231  0.00  0.00    -0.772 OA
ATOM     29  H   UNL d   1      35.610  -7.159  -1.181  0.00  0.00     0.167 HD
ENDBRANCH  26  28
ENDBRANCH   7  26
BRANCH   8  30
ATOM     30  C   UNL d   1      35.935  -7.206  -4.781  0.00  0.00     0.216 C 
BRANCH  30  31
ATOM     31  O   UNL d   1      34.947  -8.250  -4.844  0.00  0.00    -0.317 OA
BRANCH  31  32
ATOM     32  C   UNL d   1      33.961  -8.203  -3.910  0.00  0.00     0.255 C 
ATOM     33  O   UNL d   1      34.125  -8.247  -2.700  0.00  0.00    -0.266 OA
ATOM     34  C   UNL d   1      32.627  -8.072  -4.580  0.00  0.00     0.126 C 
ENDBRANCH  31  32
ENDBRANCH  30  31
ENDBRANCH   8  30
TORSDOF 10
ENDMDL
MODEL 3
REMARK VINA RESULT:      -7.0      2.834      4.199
REMARK  10 active torsions:
REMARK  status: ('A' for Active; 'I' for Inactive)
REMARK    1  A    between atoms: O_4  and  C_21 
REMARK    2  A    between atoms: O_4  and  C_26 
REMARK    3  A    between atoms: O_5  and  C_22 
REMARK    4  A    between atoms: O_8  and  N_12 
REMARK    5  A    between atoms: CA_16  and  N_11 
REMARK       I    between atoms: N_11  and  C_23 
REMARK    6  A    between atoms: N_14  and  C_29 
REMARK    7  A    between atoms: CA_18  and  C_22 
REMARK    8  A    between atoms: C_19  and  C_21 
REMARK    9  A    between atoms: C_23  and  C_24 
REMARK   10  A    between atoms: C_24  and  C_25 
ROOT
ATOM      1  S   UNL d   1      39.203  -6.480  -0.678  0.00  0.00    -0.136 SA
ATOM      2  O   UNL d   1      41.475  -7.283  -4.047  0.00  0.00    -0.271 OA
ATOM      3  N   UNL d   1      40.040  -8.231  -2.490  0.00  0.00    -0.293 N 
ATOM      4  C   UNL d   1      40.245  -7.918  -1.083  0.00  0.00     0.187 C 
ATOM      5  CA  UNL d   1      41.744  -7.639  -1.473  0.00  0.00     0.211 C 
ATOM      6  C   UNL d   1      41.153  -7.578  -2.932  0.00  0.00     0.251 C 
ATOM      7  CA  UNL d   1      38.808  -8.394  -3.067  0.00  0.00     0.117 C 
ATOM      8  C   UNL d   1      37.665  -8.020  -2.423  0.00  0.00    -0.013 C 
ATOM      9  C   UNL d   1      37.658  -7.370  -1.051  0.00  0.00     0.115 C 
ENDROOT
BRANCH   5  10
ATOM     10  N   UNL d   1      42.412  -6.508  -0.766  0.00  0.00    -0.339 N 
ATOM     11  C   UNL d   1      43.781  -6.609  -0.460  0.00  0.00     0.275 C 
ATOM     12  O   UNL d   1      44.369  -5.710   0.131  0.00  0.00    -0.266 OA
ATOM     13  H   UNL d   1      42.002  -5.573  -0.764  0.00  0.00     0.163 HD
BRANCH  11  14
ATOM     14  C   UNL d   1      44.499  -7.927  -0.837  0.00  0.00     0.180 C 
ATOM     15  N   UNL d   1      44.738  -8.938  -0.044  0.00  0.00    -0.126 NA
BRANCH  15  16
ATOM     16  O   UNL d   1      44.357  -8.787   1.287  0.00  0.00    -0.261 OA
ATOM     17  C   UNL d   1      45.523  -9.022   2.091  0.00  0.00     0.240 C 
ENDBRANCH  15  16
BRANCH  14  18
ATOM     18  C   UNL d   1      45.049  -8.116  -2.178  0.00  0.00     0.102 A 
ATOM     19  N   UNL d   1      46.052  -7.294  -2.678  0.00  0.00    -0.222 NA
ATOM     20  C   UNL d   1      46.504  -7.775  -3.809  0.00  0.00     0.164 A 
ATOM     21  S   UNL d   1      45.717  -9.182  -4.394  0.00  0.00    -0.062 SA
ATOM     22  C   UNL d   1      44.718  -9.177  -3.009  0.00  0.00     0.087 A 
BRANCH  20  23
ATOM     23  N   UNL d   1      47.538  -7.233  -4.460  0.00  0.00    -0.378 N 
ATOM     24  H   UNL d   1      47.697  -6.239  -4.397  0.00  0.00     0.158 HD
ATOM     25  H   UNL d   1      48.368  -7.804  -4.568  0.00  0.00     0.158 HD
ENDBRANCH  20  23
ENDBRANCH  14  18
ENDBRANCH  11  14
ENDBRANCH   5  10
BRANCH   7  26
ATOM     26  C   UNL d   1      38.740  -9.150  -4.381  0.00  0.00     0.194 C 
ATOM     27  OXT UNL d   1      38.674 -10.369  -4.464  0.00  0.00    -0.645 OA
BRANCH  26  28
ATOM     28  O   UNL d   1      38.909  -8.393  -5.487  0.00  0.00    -0.772 OA
ATOM     29  H   UNL d   1      38.177  -7.768  -5.681  0.00  0.00     0.167 HD
ENDBRANCH  26  28
ENDBRANCH   7  26
BRANCH   8  30
ATOM     30  C   UNL d   1      36.274  -8.123  -3.029  0.00  0.00     0.216 C 
BRANCH  30  31
ATOM     31  O   UNL d   1      36.045  -7.018  -3.921  0.00  0.00    -0.317 OA
BRANCH  31  32
ATOM     32  C   UNL d   1      34.955  -7.109  -4.727  0.00  0.00     0.255 C 
ATOM     33  O   UNL d   1      33.792  -7.047  -4.360  0.00  0.00    -0.266 OA
ATOM     34  C   UNL d   1      35.385  -7.282  -6.152  0.00  0.00     0.126 C 
ENDBRANCH  31  32
ENDBRANCH  30  31
ENDBRANCH   8  30
TORSDOF 10
ENDMDL
MODEL 4
REMARK VINA RESULT:      -6.8      2.987      7.795
REMARK  10 active torsions:
REMARK  status: ('A' for Active; 'I' for Inactive)
REMARK    1  A    between atoms: O_4  and  C_21 
REMARK    2  A    between atoms: O_4  and  C_26 
REMARK    3  A    between atoms: O_5  and  C_22 
REMARK    4  A    between atoms: O_8  and  N_12 
REMARK    5  A    between atoms: CA_16  and  N_11 
REMARK       I    between atoms: N_11  and  C_23 
REMARK    6  A    between atoms: N_14  and  C_29 
REMARK    7  A    between atoms: CA_18  and  C_22 
REMARK    8  A    between atoms: C_19  and  C_21 
REMARK    9  A    between atoms: C_23  and  C_24 
REMARK   10  A    between atoms: C_24  and  C_25 
ROOT
ATOM      1  S   UNL d   1      40.075  -7.497  -7.172  0.00  0.00    -0.136 SA
ATOM      2  O   UNL d   1      40.916  -7.454  -3.116  0.00  0.00    -0.271 OA
ATOM      3  N   UNL d   1      40.870  -8.804  -5.002  0.00  0.00    -0.293 N 
ATOM      4  C   UNL d   1      39.709  -8.726  -5.878  0.00  0.00     0.187 C 
ATOM      5  CA  UNL d   1      38.919  -8.230  -4.611  0.00  0.00     0.211 C 
ATOM      6  C   UNL d   1      40.366  -7.972  -4.045  0.00  0.00     0.251 C 
ATOM      7  CA  UNL d   1      42.153  -8.989  -5.444  0.00  0.00     0.117 C 
ATOM      8  C   UNL d   1      42.478  -8.854  -6.762  0.00  0.00    -0.013 C 
ATOM      9  C   UNL d   1      41.473  -8.462  -7.831  0.00  0.00     0.115 C 
ENDROOT
BRANCH   5  10
ATOM     10  N   UNL d   1      37.886  -7.179  -4.845  0.00  0.00    -0.339 N 
ATOM     11  C   UNL d   1      36.786  -7.098  -3.972  0.00  0.00     0.275 C 
ATOM     12  O   UNL d   1      35.907  -6.259  -4.133  0.00  0.00    -0.266 OA
ATOM     13  H   UNL d   1      38.092  -6.356  -5.412  0.00  0.00     0.163 HD
BRANCH  11  14
ATOM     14  C   UNL d   1      36.694  -8.152  -2.844  0.00  0.00     0.180 C 
ATOM     15  N   UNL d   1      36.043  -9.285  -2.886  0.00  0.00    -0.126 NA
BRANCH  15  16
ATOM     16  O   UNL d   1      35.314  -9.538  -4.045  0.00  0.00    -0.261 OA
ATOM     17  C   UNL d   1      33.941  -9.229  -3.759  0.00  0.00     0.240 C 
ENDBRANCH  15  16
BRANCH  14  18
ATOM     18  C   UNL d   1      37.321  -7.907  -1.545  0.00  0.00     0.102 A 
ATOM     19  N   UNL d   1      36.934  -6.845  -0.737  0.00  0.00    -0.222 NA
ATOM     20  C   UNL d   1      37.499  -6.947   0.440  0.00  0.00     0.164 A 
ATOM     21  S   UNL d   1      38.586  -8.258   0.638  0.00  0.00    -0.062 SA
ATOM     22  C   UNL d   1      38.249  -8.757  -0.960  0.00  0.00     0.087 A 
BRANCH  20  23
ATOM     23  N   UNL d   1      37.226  -6.109   1.444  0.00  0.00    -0.378 N 
ATOM     24  H   UNL d   1      37.650  -6.262   2.347  0.00  0.00     0.158 HD
ATOM     25  H   UNL d   1      37.044  -5.142   1.204  0.00  0.00     0.158 HD
ENDBRANCH  20  23
ENDBRANCH  14  18
ENDBRANCH  11  14
ENDBRANCH   5  10
BRANCH   7  26
ATOM     26  C   UNL d   1      43.175  -9.503  -4.447  0.00  0.00     0.194 C 
ATOM     27  OXT UNL d   1      43.339 -10.688  -4.189  0.00  0.00    -0.645 OA
BRANCH  26  28
ATOM     28  O   UNL d   1      43.809  -8.548  -3.733  0.00  0.00    -0.772 OA
ATOM     29  H   UNL d   1      44.784  -8.520  -3.846  0.00  0.00     0.167 HD
ENDBRANCH  26  28
ENDBRANCH   7  26
BRANCH   8  30
ATOM     30  C   UNL d   1      43.891  -8.991  -7.309  0.00  0.00     0.216 C 
BRANCH  30  31
ATOM     31  O   UNL d   1      44.524  -7.700  -7.358  0.00  0.00    -0.317 OA
BRANCH  31  32
ATOM     32  C   UNL d   1      45.771  -7.620  -6.824  0.00  0.00     0.255 C 
ATOM     33  O   UNL d   1      46.066  -7.868  -5.665  0.00  0.00    -0.266 OA
ATOM     34  C   UNL d   1      46.751  -7.197  -7.875  0.00  0.00     0.126 C 
ENDBRANCH  31  32
ENDBRANCH  30  31
ENDBRANCH   8  30
TORSDOF 10
ENDMDL
MODEL 5
REMARK VINA RESULT:      -6.8      1.979      3.053
REMARK  10 active torsions:
REMARK  status: ('A' for Active; 'I' for Inactive)
REMARK    1  A    between atoms: O_4  and  C_21 
REMARK    2  A    between atoms: O_4  and  C_26 
REMARK    3  A    between atoms: O_5  and  C_22 
REMARK    4  A    between atoms: O_8  and  N_12 
REMARK    5  A    between atoms: CA_16  and  N_11 
REMARK       I    between atoms: N_11  and  C_23 
REMARK    6  A    between atoms: N_14  and  C_29 
REMARK    7  A    between atoms: CA_18  and  C_22 
REMARK    8  A    between atoms: C_19  and  C_21 
REMARK    9  A    between atoms: C_23  and  C_24 
REMARK   10  A    between atoms: C_24  and  C_25 
ROOT
ATOM      1  S   UNL d   1      38.413 -10.936  -3.738  0.00  0.00    -0.136 SA
ATOM      2  O   UNL d   1      39.897  -8.622  -0.639  0.00  0.00    -0.271 OA
ATOM      3  N   UNL d   1      38.940  -8.528  -2.750  0.00  0.00    -0.293 N 
ATOM      4  C   UNL d   1      39.442  -9.432  -3.775  0.00  0.00     0.187 C 
ATOM      5  CA  UNL d   1      40.782  -9.452  -2.951  0.00  0.00     0.211 C 
ATOM      6  C   UNL d   1      39.866  -8.873  -1.809  0.00  0.00     0.251 C 
ATOM      7  CA  UNL d   1      37.625  -8.167  -2.623  0.00  0.00     0.117 C 
ATOM      8  C   UNL d   1      36.637  -8.831  -3.290  0.00  0.00    -0.013 C 
ATOM      9  C   UNL d   1      36.898 -10.029  -4.186  0.00  0.00     0.115 C 
ENDROOT
BRANCH   5  10
ATOM     10  N   UNL d   1      41.506 -10.756  -2.897  0.00  0.00    -0.339 N 
ATOM     11  C   UNL d   1      42.863 -10.799  -3.267  0.00  0.00     0.275 C 
ATOM     12  O   UNL d   1      43.494 -11.849  -3.250  0.00  0.00    -0.266 OA
ATOM     13  H   UNL d   1      41.153 -11.531  -2.335  0.00  0.00     0.163 HD
BRANCH  11  14
ATOM     14  C   UNL d   1      43.507  -9.482  -3.762  0.00  0.00     0.180 C 
ATOM     15  N   UNL d   1      43.921  -8.490  -3.019  0.00  0.00    -0.126 NA
BRANCH  15  16
ATOM     16  O   UNL d   1      43.709  -8.610  -1.648  0.00  0.00    -0.261 OA
ATOM     17  C   UNL d   1      43.284  -7.324  -1.170  0.00  0.00     0.240 C 
ENDBRANCH  15  16
BRANCH  14  18
ATOM     18  C   UNL d   1      43.647  -9.215  -5.193  0.00  0.00     0.102 A 
ATOM     19  N   UNL d   1      42.583  -8.752  -5.957  0.00  0.00    -0.222 NA
ATOM     20  C   UNL d   1      43.001  -8.412  -7.151  0.00  0.00     0.164 A 
ATOM     21  S   UNL d   1      44.661  -8.695  -7.472  0.00  0.00    -0.062 SA
ATOM     22  C   UNL d   1      44.852  -9.281  -5.879  0.00  0.00     0.087 A 
BRANCH  20  23
ATOM     23  N   UNL d   1      42.202  -7.846  -8.059  0.00  0.00    -0.378 N 
ATOM     24  H   UNL d   1      41.351  -8.315  -8.333  0.00  0.00     0.158 HD
ATOM     25  H   UNL d   1      42.170  -6.833  -8.082  0.00  0.00     0.158 HD
ENDBRANCH  20  23
ENDBRANCH  14  18
ENDBRANCH  11  14
ENDBRANCH   5  10
BRANCH   7  26
ATOM     26  C   UNL d   1      37.313  -6.904  -1.842  0.00  0.00     0.194 C 
ATOM     27  OXT UNL d   1      36.896  -6.899  -0.692  0.00  0.00    -0.645 OA
BRANCH  26  28
ATOM     28  O   UNL d   1      37.382  -5.759  -2.554  0.00  0.00    -0.772 OA
ATOM     29  H   UNL d   1      37.133  -5.839  -3.501  0.00  0.00     0.167 HD
ENDBRANCH  26  28
ENDBRANCH   7  26
BRANCH   8  30
ATOM     30  C   UNL d   1      35.155  -8.517  -3.150  0.00  0.00     0.216 C 
BRANCH  30  31
ATOM     31  O   UNL d   1      34.595  -8.214  -4.439  0.00  0.00    -0.317 OA
BRANCH  31  32
ATOM     32  C   UNL d   1      34.976  -7.037  -5.001  0.00  0.00     0.255 C 
ATOM     33  O   UNL d   1      35.057  -5.965  -4.421  0.00  0.00    -0.266 OA
ATOM     34  C   UNL d   1      35.307  -7.244  -6.448  0.00  0.00     0.126 C 
ENDBRANCH  31  32
ENDBRANCH  30  31
ENDBRANCH   8  30
TORSDOF 10
ENDMDL
MODEL 6
REMARK VINA RESULT:      -6.5      3.283      8.067
REMARK  10 active torsions:
REMARK  status: ('A' for Active; 'I' for Inactive)
REMARK    1  A    between atoms: O_4  and  C_21 
REMARK    2  A    between atoms: O_4  and  C_26 
REMARK    3  A    between atoms: O_5  and  C_22 
REMARK    4  A    between atoms: O_8  and  N_12 
REMARK    5  A    between atoms: CA_16  and  N_11 
REMARK       I    between atoms: N_11  and  C_23 
REMARK    6  A    between atoms: N_14  and  C_29 
REMARK    7  A    between atoms: CA_18  and  C_22 
REMARK    8  A    between atoms: C_19  and  C_21 
REMARK    9  A    between atoms: C_23  and  C_24 
REMARK   10  A    between atoms: C_24  and  C_25 
ROOT
ATOM      1  S   UNL d   1      40.634  -7.076  -0.819  0.00  0.00    -0.136 SA
ATOM      2  O   UNL d   1      41.518 -10.642  -2.734  0.00  0.00    -0.271 OA
ATOM      3  N   UNL d   1      41.986  -8.370  -2.704  0.00  0.00    -0.293 N 
ATOM      4  C   UNL d   1      40.873  -7.438  -2.589  0.00  0.00     0.187 C 
ATOM      5  CA  UNL d   1      39.992  -8.579  -3.220  0.00  0.00     0.211 C 
ATOM      6  C   UNL d   1      41.209  -9.487  -2.806  0.00  0.00     0.251 C 
ATOM      7  CA  UNL d   1      43.209  -8.179  -2.118  0.00  0.00     0.117 C 
ATOM      8  C   UNL d   1      43.399  -7.223  -1.163  0.00  0.00    -0.013 C 
ATOM      9  C   UNL d   1      42.286  -6.327  -0.650  0.00  0.00     0.115 C 
ENDROOT
BRANCH   5  10
ATOM     10  N   UNL d   1      38.602  -8.709  -2.692  0.00  0.00    -0.339 N 
ATOM     11  C   UNL d   1      37.583  -9.153  -3.555  0.00  0.00     0.275 C 
ATOM     12  O   UNL d   1      36.425  -9.264  -3.169  0.00  0.00    -0.266 OA
ATOM     13  H   UNL d   1      38.423  -8.775  -1.689  0.00  0.00     0.163 HD
BRANCH  11  14
ATOM     14  C   UNL d   1      37.970  -9.431  -5.028  0.00  0.00     0.180 C 
ATOM     15  N   UNL d   1      38.504 -10.527  -5.499  0.00  0.00    -0.126 NA
BRANCH  15  16
ATOM     16  O   UNL d   1      38.806 -11.520  -4.571  0.00  0.00    -0.261 OA
ATOM     17  C   UNL d   1      39.832 -12.341  -5.147  0.00  0.00     0.240 C 
ENDBRANCH  15  16
BRANCH  14  18
ATOM     18  C   UNL d   1      37.810  -8.395  -6.047  0.00  0.00     0.102 A 
ATOM     19  N   UNL d   1      36.848  -7.399  -5.930  0.00  0.00    -0.222 NA
ATOM     20  C   UNL d   1      37.025  -6.492  -6.858  0.00  0.00     0.164 A 
ATOM     21  S   UNL d   1      38.287  -6.801  -7.976  0.00  0.00    -0.062 SA
ATOM     22  C   UNL d   1      38.657  -8.240  -7.135  0.00  0.00     0.087 A 
BRANCH  20  23
ATOM     23  N   UNL d   1      36.297  -5.373  -6.918  0.00  0.00    -0.378 N 
ATOM     24  H   UNL d   1      36.742  -4.505  -7.176  0.00  0.00     0.158 HD
ATOM     25  H   UNL d   1      35.326  -5.466  -7.194  0.00  0.00     0.158 HD
ENDBRANCH  20  23
ENDBRANCH  14  18
ENDBRANCH  11  14
ENDBRANCH   5  10
BRANCH   7  26
ATOM     26  C   UNL d   1      44.387  -8.956  -2.676  0.00  0.00     0.194 C 
ATOM     27  OXT UNL d   1      45.013  -8.623  -3.672  0.00  0.00    -0.645 OA
BRANCH  26  28
ATOM     28  O   UNL d   1      44.620 -10.146  -2.082  0.00  0.00    -0.772 OA
ATOM     29  H   UNL d   1      44.883 -10.098  -1.137  0.00  0.00     0.167 HD
ENDBRANCH  26  28
ENDBRANCH   7  26
BRANCH   8  30
ATOM     30  C   UNL d   1      44.716  -6.997  -0.435  0.00  0.00     0.216 C 
BRANCH  30  31
ATOM     31  O   UNL d   1      44.728  -7.739   0.797  0.00  0.00    -0.317 OA
BRANCH  31  32
ATOM     32  C   UNL d   1      45.653  -8.728   0.897  0.00  0.00     0.255 C 
ATOM     33  O   UNL d   1      46.518  -8.978   0.072  0.00  0.00    -0.266 OA
ATOM     34  C   UNL d   1      45.474  -9.469   2.186  0.00  0.00     0.126 C 
ENDBRANCH  31  32
ENDBRANCH  30  31
ENDBRANCH   8  30
TORSDOF 10
ENDMDL
MODEL 7
REMARK VINA RESULT:      -6.3      2.977      3.941
REMARK  10 active torsions:
REMARK  status: ('A' for Active; 'I' for Inactive)
REMARK    1  A    between atoms: O_4  and  C_21 
REMARK    2  A    between atoms: O_4  and  C_26 
REMARK    3  A    between atoms: O_5  and  C_22 
REMARK    4  A    between atoms: O_8  and  N_12 
REMARK    5  A    between atoms: CA_16  and  N_11 
REMARK       I    between atoms: N_11  and  C_23 
REMARK    6  A    between atoms: N_14  and  C_29 
REMARK    7  A    between atoms: CA_18  and  C_22 
REMARK    8  A    between atoms: C_19  and  C_21 
REMARK    9  A    between atoms: C_23  and  C_24 
REMARK   10  A    between atoms: C_24  and  C_25 
ROOT
ATOM      1  S   UNL d   1      38.707  -8.388  -4.382  0.00  0.00    -0.136 SA
ATOM      2  O   UNL d   1      42.160  -9.137  -2.219  0.00  0.00    -0.271 OA
ATOM      3  N   UNL d   1      40.764  -7.451  -2.989  0.00  0.00    -0.293 N 
ATOM      4  C   UNL d   1      40.305  -7.512  -4.369  0.00  0.00     0.187 C 
ATOM      5  CA  UNL d   1      41.598  -8.362  -4.650  0.00  0.00     0.211 C 
ATOM      6  C   UNL d   1      41.602  -8.523  -3.083  0.00  0.00     0.251 C 
ATOM      7  CA  UNL d   1      39.998  -7.001  -1.945  0.00  0.00     0.117 C 
ATOM      8  C   UNL d   1      38.653  -6.817  -2.077  0.00  0.00    -0.013 C 
ATOM      9  C   UNL d   1      37.893  -7.122  -3.356  0.00  0.00     0.115 C 
ENDROOT
BRANCH   5  10
ATOM     10  N   UNL d   1      41.456  -9.479  -5.630  0.00  0.00    -0.339 N 
ATOM     11  C   UNL d   1      42.610  -9.997  -6.246  0.00  0.00     0.275 C 
ATOM     12  O   UNL d   1      42.540 -10.905  -7.066  0.00  0.00    -0.266 OA
ATOM     13  H   UNL d   1      40.619 -10.063  -5.645  0.00  0.00     0.163 HD
BRANCH  11  14
ATOM     14  C   UNL d   1      43.962  -9.329  -5.898  0.00  0.00     0.180 C 
ATOM     15  N   UNL d   1      44.606  -8.452  -6.622  0.00  0.00    -0.126 NA
BRANCH  15  16
ATOM     16  O   UNL d   1      44.044  -8.132  -7.855  0.00  0.00    -0.261 OA
ATOM     17  C   UNL d   1      44.972  -7.272  -8.534  0.00  0.00     0.240 C 
ENDBRANCH  15  16
BRANCH  14  18
ATOM     18  C   UNL d   1      44.688  -9.706  -4.686  0.00  0.00     0.102 A 
ATOM     19  N   UNL d   1      45.262  -8.752  -3.854  0.00  0.00    -0.222 NA
ATOM     20  C   UNL d   1      45.684  -9.316  -2.750  0.00  0.00     0.164 A 
ATOM     21  S   UNL d   1      45.504 -11.018  -2.660  0.00  0.00    -0.062 SA
ATOM     22  C   UNL d   1      44.766 -11.003  -4.201  0.00  0.00     0.087 A 
BRANCH  20  23
ATOM     23  N   UNL d   1      46.194  -8.614  -1.733  0.00  0.00    -0.378 N 
ATOM     24  H   UNL d   1      45.575  -8.238  -1.030  0.00  0.00     0.158 HD
ATOM     25  H   UNL d   1      47.119  -8.871  -1.410  0.00  0.00     0.158 HD
ENDBRANCH  20  23
ENDBRANCH  14  18
ENDBRANCH  11  14
ENDBRANCH   5  10
BRANCH   7  26
ATOM     26  C   UNL d   1      40.716  -6.561  -0.683  0.00  0.00     0.194 C 
ATOM     27  OXT UNL d   1      40.969  -5.395  -0.414  0.00  0.00    -0.645 OA
BRANCH  26  28
ATOM     28  O   UNL d   1      41.205  -7.565   0.077  0.00  0.00    -0.772 OA
ATOM     29  H   UNL d   1      40.814  -7.638   0.975  0.00  0.00     0.167 HD
ENDBRANCH  26  28
ENDBRANCH   7  26
BRANCH   8  30
ATOM     30  C   UNL d   1      37.739  -6.374  -0.945  0.00  0.00     0.216 C 
BRANCH  30  31
ATOM     31  O   UNL d   1      37.465  -7.485  -0.073  0.00  0.00    -0.317 OA
BRANCH  31  32
ATOM     32  C   UNL d   1      37.521  -7.233   1.260  0.00  0.00     0.255 C 
ATOM     33  O   UNL d   1      36.957  -6.314   1.835  0.00  0.00    -0.266 OA
ATOM     34  C   UNL d   1      38.367  -8.264   1.942  0.00  0.00     0.126 C 
ENDBRANCH  31  32
ENDBRANCH  30  31
ENDBRANCH   8  30
TORSDOF 10
ENDMDL
MODEL 8
REMARK VINA RESULT:      -6.1      2.165      2.880
REMARK  10 active torsions:
REMARK  status: ('A' for Active; 'I' for Inactive)
REMARK    1  A    between atoms: O_4  and  C_21 
REMARK    2  A    between atoms: O_4  and  C_26 
REMARK    3  A    between atoms: O_5  and  C_22 
REMARK    4  A    between atoms: O_8  and  N_12 
REMARK    5  A    between atoms: CA_16  and  N_11 
REMARK       I    between atoms: N_11  and  C_23 
REMARK    6  A    between atoms: N_14  and  C_29 
REMARK    7  A    between atoms: CA_18  and  C_22 
REMARK    8  A    between atoms: C_19  and  C_21 
REMARK    9  A    between atoms: C_23  and  C_24 
REMARK   10  A    between atoms: C_24  and  C_25 
ROOT
ATOM      1  S   UNL d   1      39.188  -7.353  -6.902  0.00  0.00    -0.136 SA
ATOM      2  O   UNL d   1      39.250 -10.447  -4.148  0.00  0.00    -0.271 OA
ATOM      3  N   UNL d   1      38.558  -8.259  -4.486  0.00  0.00    -0.293 N 
ATOM      4  C   UNL d   1      39.491  -7.328  -5.105  0.00  0.00     0.187 C 
ATOM      5  CA  UNL d   1      40.627  -8.265  -4.550  0.00  0.00     0.211 C 
ATOM      6  C   UNL d   1      39.444  -9.293  -4.399  0.00  0.00     0.251 C 
ATOM      7  CA  UNL d   1      37.207  -8.253  -4.712  0.00  0.00     0.117 C 
ATOM      8  C   UNL d   1      36.659  -7.538  -5.738  0.00  0.00    -0.013 C 
ATOM      9  C   UNL d   1      37.486  -6.730  -6.722  0.00  0.00     0.115 C 
ENDROOT
BRANCH   5  10
ATOM     10  N   UNL d   1      41.821  -8.448  -5.426  0.00  0.00    -0.339 N 
ATOM     11  C   UNL d   1      42.993  -8.997  -4.876  0.00  0.00     0.275 C 
ATOM     12  O   UNL d   1      44.002  -9.154  -5.555  0.00  0.00    -0.266 OA
ATOM     13  H   UNL d   1      41.729  -8.470  -6.443  0.00  0.00     0.163 HD
BRANCH  11  14
ATOM     14  C   UNL d   1      42.981  -9.331  -3.366  0.00  0.00     0.180 C 
ATOM     15  N   UNL d   1      42.797 -10.508  -2.829  0.00  0.00    -0.126 NA
BRANCH  15  16
ATOM     16  O   UNL d   1      42.528 -11.555  -3.707  0.00  0.00    -0.261 OA
ATOM     17  C   UNL d   1      43.291 -12.687  -3.264  0.00  0.00     0.240 C 
ENDBRANCH  15  16
BRANCH  14  18
ATOM     18  C   UNL d   1      43.124  -8.270  -2.369  0.00  0.00     0.102 A 
ATOM     19  N   UNL d   1      42.057  -7.453  -2.016  0.00  0.00    -0.222 NA
ATOM     20  C   UNL d   1      42.378  -6.717  -0.981  0.00  0.00     0.164 A 
ATOM     21  S   UNL d   1      43.987  -6.885  -0.413  0.00  0.00    -0.062 SA
ATOM     22  C   UNL d   1      44.271  -8.064  -1.615  0.00  0.00     0.087 A 
BRANCH  20  23
ATOM     23  N   UNL d   1      41.505  -5.907  -0.375  0.00  0.00    -0.378 N 
ATOM     24  H   UNL d   1      40.926  -6.270   0.368  0.00  0.00     0.158 HD
ATOM     25  H   UNL d   1      41.757  -4.929  -0.297  0.00  0.00     0.158 HD
ENDBRANCH  20  23
ENDBRANCH  14  18
ENDBRANCH  11  14
ENDBRANCH   5  10
BRANCH   7  26
ATOM     26  C   UNL d   1      36.319  -8.938  -3.691  0.00  0.00     0.194 C 
ATOM     27  OXT UNL d   1      35.898 -10.081  -3.811  0.00  0.00    -0.645 OA
BRANCH  26  28
ATOM     28  O   UNL d   1      35.886  -8.147  -2.686  0.00  0.00    -0.772 OA
ATOM     29  H   UNL d   1      36.515  -8.037  -1.940  0.00  0.00     0.167 HD
ENDBRANCH  26  28
ENDBRANCH   7  26
BRANCH   8  30
ATOM     30  C   UNL d   1      35.177  -7.533  -6.076  0.00  0.00     0.216 C 
BRANCH  30  31
ATOM     31  O   UNL d   1      34.454  -6.760  -5.101  0.00  0.00    -0.317 OA
BRANCH  31  32
ATOM     32  C   UNL d   1      33.281  -7.286  -4.663  0.00  0.00     0.255 C 
ATOM     33  O   UNL d   1      32.541  -6.782  -3.832  0.00  0.00    -0.266 OA
ATOM     34  C   UNL d   1      33.007  -8.581  -5.365  0.00  0.00     0.126 C 
ENDBRANCH  31  32
ENDBRANCH  30  31
ENDBRANCH   8  30
TORSDOF 10
ENDMDL
MODEL 9
REMARK VINA RESULT:      -6.0      2.819      8.110
REMARK  10 active torsions:
REMARK  status: ('A' for Active; 'I' for Inactive)
REMARK    1  A    between atoms: O_4  and  C_21 
REMARK    2  A    between atoms: O_4  and  C_26 
REMARK    3  A    between atoms: O_5  and  C_22 
REMARK    4  A    between atoms: O_8  and  N_12 
REMARK    5  A    between atoms: CA_16  and  N_11 
REMARK       I    between atoms: N_11  and  C_23 
REMARK    6  A    between atoms: N_14  and  C_29 
REMARK    7  A    between atoms: CA_18  and  C_22 
REMARK    8  A    between atoms: C_19  and  C_21 
REMARK    9  A    between atoms: C_23  and  C_24 
REMARK   10  A    between atoms: C_24  and  C_25 
ROOT
ATOM      1  S   UNL d   1      40.293  -6.793  -5.211  0.00  0.00    -0.136 SA
ATOM      2  O   UNL d   1      42.758  -7.854  -2.055  0.00  0.00    -0.271 OA
ATOM      3  N   UNL d   1      41.531  -8.697  -3.834  0.00  0.00    -0.293 N 
ATOM      4  C   UNL d   1      40.183  -8.189  -4.044  0.00  0.00     0.187 C 
ATOM      5  CA  UNL d   1      40.186  -7.851  -2.508  0.00  0.00     0.211 C 
ATOM      6  C   UNL d   1      41.743  -8.024  -2.666  0.00  0.00     0.251 C 
ATOM      7  CA  UNL d   1      42.393  -9.027  -4.847  0.00  0.00     0.117 C 
ATOM      8  C   UNL d   1      42.147  -8.660  -6.138  0.00  0.00    -0.013 C 
ATOM      9  C   UNL d   1      40.939  -7.840  -6.555  0.00  0.00     0.115 C 
ENDROOT
BRANCH   5  10
ATOM     10  N   UNL d   1      39.496  -6.589  -2.107  0.00  0.00    -0.339 N 
ATOM     11  C   UNL d   1      38.251  -6.670  -1.456  0.00  0.00     0.275 C 
ATOM     12  O   UNL d   1      37.643  -5.660  -1.120  0.00  0.00    -0.266 OA
ATOM     13  H   UNL d   1      40.011  -5.712  -2.019  0.00  0.00     0.163 HD
BRANCH  11  14
ATOM     14  C   UNL d   1      37.650  -8.080  -1.244  0.00  0.00     0.180 C 
ATOM     15  N   UNL d   1      37.971  -8.930  -0.305  0.00  0.00    -0.126 NA
BRANCH  15  16
ATOM     16  O   UNL d   1      38.998  -8.548   0.554  0.00  0.00    -0.261 OA
ATOM     17  C   UNL d   1      38.397  -8.229   1.818  0.00  0.00     0.240 C 
ENDBRANCH  15  16
BRANCH  14  18
ATOM     18  C   UNL d   1      36.660  -8.614  -2.178  0.00  0.00     0.102 A 
ATOM     19  N   UNL d   1      35.416  -8.018  -2.343  0.00  0.00    -0.222 NA
ATOM     20  C   UNL d   1      34.790  -8.559  -3.358  0.00  0.00     0.164 A 
ATOM     21  S   UNL d   1      35.596  -9.861  -4.129  0.00  0.00    -0.062 SA
ATOM     22  C   UNL d   1      36.906  -9.665  -3.050  0.00  0.00     0.087 A 
BRANCH  20  23
ATOM     23  N   UNL d   1      33.611  -8.110  -3.799  0.00  0.00    -0.378 N 
ATOM     24  H   UNL d   1      33.106  -7.426  -3.255  0.00  0.00     0.158 HD
ATOM     25  H   UNL d   1      33.482  -8.054  -4.802  0.00  0.00     0.158 HD
ENDBRANCH  20  23
ENDBRANCH  14  18
ENDBRANCH  11  14
ENDBRANCH   5  10
BRANCH   7  26
ATOM     26  C   UNL d   1      43.550  -9.950  -4.515  0.00  0.00     0.194 C 
ATOM     27  OXT UNL d   1      43.462 -11.170  -4.483  0.00  0.00    -0.645 OA
BRANCH  26  28
ATOM     28  O   UNL d   1      44.677  -9.331  -4.102  0.00  0.00    -0.772 OA
ATOM     29  H   UNL d   1      45.227  -8.943  -4.817  0.00  0.00     0.167 HD
ENDBRANCH  26  28
ENDBRANCH   7  26
BRANCH   8  30
ATOM     30  C   UNL d   1      43.088  -8.946  -7.298  0.00  0.00     0.216 C 
BRANCH  30  31
ATOM     31  O   UNL d   1      43.939  -7.810  -7.531  0.00  0.00    -0.317 OA
BRANCH  31  32
ATOM     32  C   UNL d   1      45.267  -7.996  -7.313  0.00  0.00     0.255 C 
ATOM     33  O   UNL d   1      45.875  -7.669  -6.305  0.00  0.00    -0.266 OA
ATOM     34  C   UNL d   1      45.888  -8.683  -8.491  0.00  0.00     0.126 C 
ENDBRANCH  31  32
ENDBRANCH  30  31
ENDBRANCH   8  30
TORSDOF 10
ENDMDL
