MODEL 1
REMARK VINA RESULT:      -7.6      0.000      0.000
REMARK  10 active torsions:
REMARK  status: ('A' for Active; 'I' for Inactive)
REMARK    1  A    between atoms: O_4  and  C_21 
REMARK    2  A    between atoms: O_4  and  C_26 
REMARK    3  A    between atoms: O_5  and  C_22 
REMARK    4  A    between atoms: O_8  and  N_12 
REMARK    5  A    between atoms: CA_16  and  N_11 
REMARK       I    between atoms: N_11  and  C_23 
REMARK    6  A    between atoms: N_14  and  C_29 
REMARK    7  A    between atoms: CA_18  and  C_22 
REMARK    8  A    between atoms: C_19  and  C_21 
REMARK    9  A    between atoms: C_23  and  C_24 
REMARK   10  A    between atoms: C_24  and  C_25 
ROOT
ATOM      1  S   UNL d   1      38.539  -9.526  -2.054  0.00  0.00    -0.136 SA
ATOM      2  O   UNL d   1      41.853  -7.177  -2.920  0.00  0.00    -0.271 OA
ATOM      3  N   UNL d   1      39.658  -7.101  -2.148  0.00  0.00    -0.293 N 
ATOM      4  C   UNL d   1      38.661  -7.898  -2.861  0.00  0.00     0.187 C 
ATOM      5  CA  UNL d   1      39.613  -7.801  -4.100  0.00  0.00     0.211 C 
ATOM      6  C   UNL d   1      40.660  -7.349  -3.036  0.00  0.00     0.251 C 
ATOM      7  CA  UNL d   1      39.676  -6.951  -0.782  0.00  0.00     0.117 C 
ATOM      8  C   UNL d   1      38.885  -7.709   0.022  0.00  0.00    -0.013 C 
ATOM      9  C   UNL d   1      37.983  -8.818  -0.483  0.00  0.00     0.115 C 
ENDROOT
BRANCH   5  10
ATOM     10  N   UNL d   1      39.770  -9.039  -4.913  0.00  0.00    -0.339 N 
ATOM     11  C   UNL d   1      39.000  -9.174  -6.067  0.00  0.00     0.275 C 
ATOM     12  O   UNL d   1      39.073 -10.178  -6.775  0.00  0.00    -0.266 OA
ATOM     13  H   UNL d   1      40.597  -9.634  -4.830  0.00  0.00     0.163 HD
BRANCH  11  14
ATOM     14  C   UNL d   1      38.008  -8.044  -6.387  0.00  0.00     0.180 C 
ATOM     15  N   UNL d   1      38.251  -7.040  -7.184  0.00  0.00    -0.126 NA
BRANCH  15  16
ATOM     16  O   UNL d   1      39.520  -7.052  -7.762  0.00  0.00    -0.261 OA
ATOM     17  C   UNL d   1      39.354  -7.341  -9.149  0.00  0.00     0.240 C 
ENDBRANCH  15  16
BRANCH  14  18
ATOM     18  C   UNL d   1      36.676  -8.024  -5.782  0.00  0.00     0.102 A 
ATOM     19  N   UNL d   1      36.222  -9.054  -4.962  0.00  0.00    -0.222 NA
ATOM     20  C   UNL d   1      35.035  -8.761  -4.490  0.00  0.00     0.164 A 
ATOM     21  S   UNL d   1      34.369  -7.271  -5.012  0.00  0.00    -0.062 SA
ATOM     22  C   UNL d   1      35.777  -6.979  -5.931  0.00  0.00     0.087 A 
BRANCH  20  23
ATOM     23  N   UNL d   1      34.366  -9.555  -3.645  0.00  0.00    -0.378 N 
ATOM     24  H   UNL d   1      33.356  -9.585  -3.707  0.00  0.00     0.158 HD
ATOM     25  H   UNL d   1      34.803 -10.430  -3.382  0.00  0.00     0.158 HD
ENDBRANCH  20  23
ENDBRANCH  14  18
ENDBRANCH  11  14
ENDBRANCH   5  10
BRANCH   7  26
ATOM     26  C   UNL d   1      40.493  -5.819  -0.201  0.00  0.00     0.194 C 
ATOM     27  OXT UNL d   1      39.998  -4.772   0.199  0.00  0.00    -0.645 OA
BRANCH  26  28
ATOM     28  O   UNL d   1      41.828  -5.981  -0.246  0.00  0.00    -0.772 OA
ATOM     29  H   UNL d   1      42.230  -6.452   0.516  0.00  0.00     0.167 HD
ENDBRANCH  26  28
ENDBRANCH   7  26
BRANCH   8  30
ATOM     30  C   UNL d   1      38.850  -7.591   1.536  0.00  0.00     0.216 C 
BRANCH  30  31
ATOM     31  O   UNL d   1      37.586  -7.063   1.958  0.00  0.00    -0.317 OA
BRANCH  31  32
ATOM     32  C   UNL d   1      37.039  -7.626   3.066  0.00  0.00     0.255 C 
ATOM     33  O   UNL d   1      36.309  -7.057   3.867  0.00  0.00    -0.266 OA
ATOM     34  C   UNL d   1      37.455  -9.060   3.169  0.00  0.00     0.126 C 
ENDBRANCH  31  32
ENDBRANCH  30  31
ENDBRANCH   8  30
TORSDOF 10
ENDMDL
MODEL 2
REMARK VINA RESULT:      -7.3      2.043      2.866
REMARK  10 active torsions:
REMARK  status: ('A' for Active; 'I' for Inactive)
REMARK    1  A    between atoms: O_4  and  C_21 
REMARK    2  A    between atoms: O_4  and  C_26 
REMARK    3  A    between atoms: O_5  and  C_22 
REMARK    4  A    between atoms: O_8  and  N_12 
REMARK    5  A    between atoms: CA_16  and  N_11 
REMARK       I    between atoms: N_11  and  C_23 
REMARK    6  A    between atoms: N_14  and  C_29 
REMARK    7  A    between atoms: CA_18  and  C_22 
REMARK    8  A    between atoms: C_19  and  C_21 
REMARK    9  A    between atoms: C_23  and  C_24 
REMARK   10  A    between atoms: C_24  and  C_25 
ROOT
ATOM      1  S   UNL d   1      37.553  -8.857  -2.698  0.00  0.00    -0.136 SA
ATOM      2  O   UNL d   1      41.638  -8.108  -2.728  0.00  0.00    -0.271 OA
ATOM      3  N   UNL d   1      39.554  -7.097  -2.495  0.00  0.00    -0.293 N 
ATOM      4  C   UNL d   1      38.503  -7.488  -3.434  0.00  0.00     0.187 C 
ATOM      5  CA  UNL d   1      39.659  -7.886  -4.412  0.00  0.00     0.211 C 
ATOM      6  C   UNL d   1      40.536  -7.799  -3.125  0.00  0.00     0.251 C 
ATOM      7  CA  UNL d   1      39.330  -6.850  -1.162  0.00  0.00     0.117 C 
ATOM      8  C   UNL d   1      38.143  -7.158  -0.577  0.00  0.00    -0.013 C 
ATOM      9  C   UNL d   1      37.003  -7.854  -1.294  0.00  0.00     0.115 C 
ENDROOT
BRANCH   5  10
ATOM     10  N   UNL d   1      39.473  -9.148  -5.179  0.00  0.00    -0.339 N 
ATOM     11  C   UNL d   1      39.619  -9.107  -6.564  0.00  0.00     0.275 C 
ATOM     12  O   UNL d   1      39.466 -10.111  -7.258  0.00  0.00    -0.266 OA
ATOM     13  H   UNL d   1      39.535 -10.063  -4.729  0.00  0.00     0.163 HD
BRANCH  11  14
ATOM     14  C   UNL d   1      39.920  -7.739  -7.199  0.00  0.00     0.180 C 
ATOM     15  N   UNL d   1      41.089  -7.161  -7.212  0.00  0.00    -0.126 NA
BRANCH  15  16
ATOM     16  O   UNL d   1      42.104  -7.892  -6.591  0.00  0.00    -0.261 OA
ATOM     17  C   UNL d   1      43.080  -8.196  -7.586  0.00  0.00     0.240 C 
ENDBRANCH  15  16
BRANCH  14  18
ATOM     18  C   UNL d   1      38.861  -6.967  -7.849  0.00  0.00     0.102 A 
ATOM     19  N   UNL d   1      38.925  -6.611  -9.194  0.00  0.00    -0.222 NA
ATOM     20  C   UNL d   1      37.826  -5.993  -9.548  0.00  0.00     0.164 A 
ATOM     21  S   UNL d   1      36.665  -5.762  -8.308  0.00  0.00    -0.062 SA
ATOM     22  C   UNL d   1      37.698  -6.562  -7.210  0.00  0.00     0.087 A 
BRANCH  20  23
ATOM     23  N   UNL d   1      37.595  -5.565 -10.795  0.00  0.00    -0.378 N 
ATOM     24  H   UNL d   1      36.764  -5.014 -10.971  0.00  0.00     0.158 HD
ATOM     25  H   UNL d   1      38.398  -5.314 -11.359  0.00  0.00     0.158 HD
ENDBRANCH  20  23
ENDBRANCH  14  18
ENDBRANCH  11  14
ENDBRANCH   5  10
BRANCH   7  26
ATOM     26  C   UNL d   1      40.388  -6.093  -0.391  0.00  0.00     0.194 C 
ATOM     27  OXT UNL d   1      40.305  -4.897  -0.140  0.00  0.00    -0.645 OA
BRANCH  26  28
ATOM     28  O   UNL d   1      41.496  -6.791  -0.081  0.00  0.00    -0.772 OA
ATOM     29  H   UNL d   1      41.854  -6.651   0.822  0.00  0.00     0.167 HD
ENDBRANCH  26  28
ENDBRANCH   7  26
BRANCH   8  30
ATOM     30  C   UNL d   1      37.826  -6.907   0.887  0.00  0.00     0.216 C 
BRANCH  30  31
ATOM     31  O   UNL d   1      37.744  -8.153   1.592  0.00  0.00    -0.317 OA
BRANCH  31  32
ATOM     32  C   UNL d   1      38.059  -8.119   2.913  0.00  0.00     0.255 C 
ATOM     33  O   UNL d   1      39.139  -7.784   3.378  0.00  0.00    -0.266 OA
ATOM     34  C   UNL d   1      36.881  -8.548   3.730  0.00  0.00     0.126 C 
ENDBRANCH  31  32
ENDBRANCH  30  31
ENDBRANCH   8  30
TORSDOF 10
ENDMDL
MODEL 3
REMARK VINA RESULT:      -7.2      3.638      6.466
REMARK  10 active torsions:
REMARK  status: ('A' for Active; 'I' for Inactive)
REMARK    1  A    between atoms: O_4  and  C_21 
REMARK    2  A    between atoms: O_4  and  C_26 
REMARK    3  A    between atoms: O_5  and  C_22 
REMARK    4  A    between atoms: O_8  and  N_12 
REMARK    5  A    between atoms: CA_16  and  N_11 
REMARK       I    between atoms: N_11  and  C_23 
REMARK    6  A    between atoms: N_14  and  C_29 
REMARK    7  A    between atoms: CA_18  and  C_22 
REMARK    8  A    between atoms: C_19  and  C_21 
REMARK    9  A    between atoms: C_23  and  C_24 
REMARK   10  A    between atoms: C_24  and  C_25 
ROOT
ATOM      1  S   UNL d   1      38.377 -10.831  -3.813  0.00  0.00    -0.136 SA
ATOM      2  O   UNL d   1      40.033  -8.528  -0.779  0.00  0.00    -0.271 OA
ATOM      3  N   UNL d   1      38.947  -8.410  -2.835  0.00  0.00    -0.293 N 
ATOM      4  C   UNL d   1      39.392  -9.321  -3.889  0.00  0.00     0.187 C 
ATOM      5  CA  UNL d   1      40.765  -9.363  -3.138  0.00  0.00     0.211 C 
ATOM      6  C   UNL d   1      39.940  -8.746  -1.967  0.00  0.00     0.251 C 
ATOM      7  CA  UNL d   1      37.630  -8.081  -2.620  0.00  0.00     0.117 C 
ATOM      8  C   UNL d   1      36.624  -8.748  -3.245  0.00  0.00    -0.013 C 
ATOM      9  C   UNL d   1      36.841  -9.938  -4.160  0.00  0.00     0.115 C 
ENDROOT
BRANCH   5  10
ATOM     10  N   UNL d   1      41.430 -10.692  -3.046  0.00  0.00    -0.339 N 
ATOM     11  C   UNL d   1      42.790 -10.772  -3.339  0.00  0.00     0.275 C 
ATOM     12  O   UNL d   1      43.396 -11.842  -3.295  0.00  0.00    -0.266 OA
ATOM     13  H   UNL d   1      41.020 -11.461  -2.512  0.00  0.00     0.163 HD
BRANCH  11  14
ATOM     14  C   UNL d   1      43.491  -9.478  -3.781  0.00  0.00     0.180 C 
ATOM     15  N   UNL d   1      43.439  -8.972  -4.983  0.00  0.00    -0.126 NA
BRANCH  15  16
ATOM     16  O   UNL d   1      42.669  -9.704  -5.888  0.00  0.00    -0.261 OA
ATOM     17  C   UNL d   1      41.905  -8.772  -6.650  0.00  0.00     0.240 C 
ENDBRANCH  15  16
BRANCH  14  18
ATOM     18  C   UNL d   1      44.302  -8.706  -2.839  0.00  0.00     0.102 A 
ATOM     19  N   UNL d   1      43.743  -7.749  -1.996  0.00  0.00    -0.222 NA
ATOM     20  C   UNL d   1      44.663  -7.258  -1.202  0.00  0.00     0.164 A 
ATOM     21  S   UNL d   1      46.248  -7.870  -1.427  0.00  0.00    -0.062 SA
ATOM     22  C   UNL d   1      45.667  -8.882  -2.671  0.00  0.00     0.087 A 
BRANCH  20  23
ATOM     23  N   UNL d   1      44.407  -6.341  -0.262  0.00  0.00    -0.378 N 
ATOM     24  H   UNL d   1      43.518  -5.857  -0.287  0.00  0.00     0.158 HD
ATOM     25  H   UNL d   1      44.772  -6.512   0.668  0.00  0.00     0.158 HD
ENDBRANCH  20  23
ENDBRANCH  14  18
ENDBRANCH  11  14
ENDBRANCH   5  10
BRANCH   7  26
ATOM     26  C   UNL d   1      37.329  -6.861  -1.779  0.00  0.00     0.194 C 
ATOM     27  OXT UNL d   1      36.975  -6.924  -0.608  0.00  0.00    -0.645 OA
BRANCH  26  28
ATOM     28  O   UNL d   1      37.368  -5.682  -2.428  0.00  0.00    -0.772 OA
ATOM     29  H   UNL d   1      37.986  -5.631  -3.189  0.00  0.00     0.167 HD
ENDBRANCH  26  28
ENDBRANCH   7  26
BRANCH   8  30
ATOM     30  C   UNL d   1      35.150  -8.433  -3.059  0.00  0.00     0.216 C 
BRANCH  30  31
ATOM     31  O   UNL d   1      34.547  -8.142  -4.326  0.00  0.00    -0.317 OA
BRANCH  31  32
ATOM     32  C   UNL d   1      34.966  -7.008  -4.946  0.00  0.00     0.255 C 
ATOM     33  O   UNL d   1      35.100  -5.914  -4.414  0.00  0.00    -0.266 OA
ATOM     34  C   UNL d   1      35.251  -7.289  -6.388  0.00  0.00     0.126 C 
ENDBRANCH  31  32
ENDBRANCH  30  31
ENDBRANCH   8  30
TORSDOF 10
ENDMDL
MODEL 4
REMARK VINA RESULT:      -7.0      3.715      8.689
REMARK  10 active torsions:
REMARK  status: ('A' for Active; 'I' for Inactive)
REMARK    1  A    between atoms: O_4  and  C_21 
REMARK    2  A    between atoms: O_4  and  C_26 
REMARK    3  A    between atoms: O_5  and  C_22 
REMARK    4  A    between atoms: O_8  and  N_12 
REMARK    5  A    between atoms: CA_16  and  N_11 
REMARK       I    between atoms: N_11  and  C_23 
REMARK    6  A    between atoms: N_14  and  C_29 
REMARK    7  A    between atoms: CA_18  and  C_22 
REMARK    8  A    between atoms: C_19  and  C_21 
REMARK    9  A    between atoms: C_23  and  C_24 
REMARK   10  A    between atoms: C_24  and  C_25 
ROOT
ATOM      1  S   UNL d   1      39.420  -8.803  -7.767  0.00  0.00    -0.136 SA
ATOM      2  O   UNL d   1      35.464  -7.786  -7.010  0.00  0.00    -0.271 OA
ATOM      3  N   UNL d   1      37.569  -6.899  -7.464  0.00  0.00    -0.293 N 
ATOM      4  C   UNL d   1      38.712  -7.468  -6.751  0.00  0.00     0.187 C 
ATOM      5  CA  UNL d   1      37.686  -7.897  -5.649  0.00  0.00     0.211 C 
ATOM      6  C   UNL d   1      36.636  -7.601  -6.764  0.00  0.00     0.251 C 
ATOM      7  CA  UNL d   1      37.610  -6.515  -8.783  0.00  0.00     0.117 C 
ATOM      8  C   UNL d   1      38.665  -6.833  -9.578  0.00  0.00    -0.013 C 
ATOM      9  C   UNL d   1      39.836  -7.683  -9.128  0.00  0.00     0.115 C 
ENDROOT
BRANCH   5  10
ATOM     10  N   UNL d   1      37.877  -9.250  -5.057  0.00  0.00    -0.339 N 
ATOM     11  C   UNL d   1      37.336  -9.502  -3.797  0.00  0.00     0.275 C 
ATOM     12  O   UNL d   1      37.469 -10.594  -3.247  0.00  0.00    -0.266 OA
ATOM     13  H   UNL d   1      38.117 -10.058  -5.633  0.00  0.00     0.163 HD
BRANCH  11  14
ATOM     14  C   UNL d   1      36.617  -8.339  -3.095  0.00  0.00     0.180 C 
ATOM     15  N   UNL d   1      35.380  -7.985  -3.310  0.00  0.00    -0.126 NA
BRANCH  15  16
ATOM     16  O   UNL d   1      34.710  -8.763  -4.255  0.00  0.00    -0.261 OA
ATOM     17  C   UNL d   1      33.314  -8.665  -3.976  0.00  0.00     0.240 C 
ENDBRANCH  15  16
BRANCH  14  18
ATOM     18  C   UNL d   1      37.314  -7.517  -2.105  0.00  0.00     0.102 A 
ATOM     19  N   UNL d   1      36.692  -7.080  -0.938  0.00  0.00    -0.222 NA
ATOM     20  C   UNL d   1      37.547  -6.430  -0.189  0.00  0.00     0.164 A 
ATOM     21  S   UNL d   1      39.128  -6.265  -0.831  0.00  0.00    -0.062 SA
ATOM     22  C   UNL d   1      38.644  -7.141  -2.213  0.00  0.00     0.087 A 
BRANCH  20  23
ATOM     23  N   UNL d   1      37.236  -5.923   1.010  0.00  0.00    -0.378 N 
ATOM     24  H   UNL d   1      36.742  -6.510   1.670  0.00  0.00     0.158 HD
ATOM     25  H   UNL d   1      37.892  -5.274   1.426  0.00  0.00     0.158 HD
ENDBRANCH  20  23
ENDBRANCH  14  18
ENDBRANCH  11  14
ENDBRANCH   5  10
BRANCH   7  26
ATOM     26  C   UNL d   1      36.517  -5.602  -9.293  0.00  0.00     0.194 C 
ATOM     27  OXT UNL d   1      36.332  -4.472  -8.860  0.00  0.00    -0.645 OA
BRANCH  26  28
ATOM     28  O   UNL d   1      35.674  -6.147 -10.190  0.00  0.00    -0.772 OA
ATOM     29  H   UNL d   1      34.730  -6.191  -9.922  0.00  0.00     0.167 HD
ENDBRANCH  26  28
ENDBRANCH   7  26
BRANCH   8  30
ATOM     30  C   UNL d   1      38.778  -6.435 -11.040  0.00  0.00     0.216 C 
BRANCH  30  31
ATOM     31  O   UNL d   1      39.326  -5.115 -11.148  0.00  0.00    -0.317 OA
BRANCH  31  32
ATOM     32  C   UNL d   1      39.336  -4.567 -12.391  0.00  0.00     0.255 C 
ATOM     33  O   UNL d   1      40.037  -3.632 -12.752  0.00  0.00    -0.266 OA
ATOM     34  C   UNL d   1      38.359  -5.283 -13.271  0.00  0.00     0.126 C 
ENDBRANCH  31  32
ENDBRANCH  30  31
ENDBRANCH   8  30
TORSDOF 10
ENDMDL
MODEL 5
REMARK VINA RESULT:      -7.0      2.790      4.375
REMARK  10 active torsions:
REMARK  status: ('A' for Active; 'I' for Inactive)
REMARK    1  A    between atoms: O_4  and  C_21 
REMARK    2  A    between atoms: O_4  and  C_26 
REMARK    3  A    between atoms: O_5  and  C_22 
REMARK    4  A    between atoms: O_8  and  N_12 
REMARK    5  A    between atoms: CA_16  and  N_11 
REMARK       I    between atoms: N_11  and  C_23 
REMARK    6  A    between atoms: N_14  and  C_29 
REMARK    7  A    between atoms: CA_18  and  C_22 
REMARK    8  A    between atoms: C_19  and  C_21 
REMARK    9  A    between atoms: C_23  and  C_24 
REMARK   10  A    between atoms: C_24  and  C_25 
ROOT
ATOM      1  S   UNL d   1      37.575  -8.172  -3.538  0.00  0.00    -0.136 SA
ATOM      2  O   UNL d   1      41.447  -9.327  -2.579  0.00  0.00    -0.271 OA
ATOM      3  N   UNL d   1      40.060  -7.475  -2.844  0.00  0.00    -0.293 N 
ATOM      4  C   UNL d   1      39.179  -7.451  -4.011  0.00  0.00     0.187 C 
ATOM      5  CA  UNL d   1      40.208  -8.418  -4.686  0.00  0.00     0.211 C 
ATOM      6  C   UNL d   1      40.724  -8.601  -3.226  0.00  0.00     0.251 C 
ATOM      7  CA  UNL d   1      39.688  -7.022  -1.601  0.00  0.00     0.117 C 
ATOM      8  C   UNL d   1      38.396  -6.709  -1.321  0.00  0.00    -0.013 C 
ATOM      9  C   UNL d   1      37.251  -6.893  -2.298  0.00  0.00     0.115 C 
ENDROOT
BRANCH   5  10
ATOM     10  N   UNL d   1      39.639  -9.537  -5.488  0.00  0.00    -0.339 N 
ATOM     11  C   UNL d   1      39.871  -9.549  -6.862  0.00  0.00     0.275 C 
ATOM     12  O   UNL d   1      39.418 -10.436  -7.584  0.00  0.00    -0.266 OA
ATOM     13  H   UNL d   1      39.353 -10.416  -5.055  0.00  0.00     0.163 HD
BRANCH  11  14
ATOM     14  C   UNL d   1      40.665  -8.372  -7.452  0.00  0.00     0.180 C 
ATOM     15  N   UNL d   1      40.144  -7.245  -7.854  0.00  0.00    -0.126 NA
BRANCH  15  16
ATOM     16  O   UNL d   1      38.759  -7.161  -7.706  0.00  0.00    -0.261 OA
ATOM     17  C   UNL d   1      38.198  -7.032  -9.012  0.00  0.00     0.240 C 
ENDBRANCH  15  16
BRANCH  14  18
ATOM     18  C   UNL d   1      42.117  -8.453  -7.611  0.00  0.00     0.102 A 
ATOM     19  N   UNL d   1      42.900  -7.324  -7.837  0.00  0.00    -0.222 NA
ATOM     20  C   UNL d   1      44.167  -7.654  -7.867  0.00  0.00     0.164 A 
ATOM     21  S   UNL d   1      44.510  -9.322  -7.668  0.00  0.00    -0.062 SA
ATOM     22  C   UNL d   1      42.839  -9.633  -7.513  0.00  0.00     0.087 A 
BRANCH  20  23
ATOM     23  N   UNL d   1      45.153  -6.765  -8.035  0.00  0.00    -0.378 N 
ATOM     24  H   UNL d   1      45.116  -6.146  -8.834  0.00  0.00     0.158 HD
ATOM     25  H   UNL d   1      45.562  -6.360  -7.201  0.00  0.00     0.158 HD
ENDBRANCH  20  23
ENDBRANCH  14  18
ENDBRANCH  11  14
ENDBRANCH   5  10
BRANCH   7  26
ATOM     26  C   UNL d   1      40.778  -6.740  -0.591  0.00  0.00     0.194 C 
ATOM     27  OXT UNL d   1      41.335  -5.654  -0.493  0.00  0.00    -0.645 OA
BRANCH  26  28
ATOM     28  O   UNL d   1      41.186  -7.797   0.136  0.00  0.00    -0.772 OA
ATOM     29  H   UNL d   1      41.985  -7.656   0.689  0.00  0.00     0.167 HD
ENDBRANCH  26  28
ENDBRANCH   7  26
BRANCH   8  30
ATOM     30  C   UNL d   1      37.918  -6.196   0.027  0.00  0.00     0.216 C 
BRANCH  30  31
ATOM     31  O   UNL d   1      37.432  -7.286   0.821  0.00  0.00    -0.317 OA
BRANCH  31  32
ATOM     32  C   UNL d   1      38.134  -7.567   1.949  0.00  0.00     0.255 C 
ATOM     33  O   UNL d   1      39.240  -7.126   2.228  0.00  0.00    -0.266 OA
ATOM     34  C   UNL d   1      37.349  -8.499   2.819  0.00  0.00     0.126 C 
ENDBRANCH  31  32
ENDBRANCH  30  31
ENDBRANCH   8  30
TORSDOF 10
ENDMDL
MODEL 6
REMARK VINA RESULT:      -7.0      2.911      8.419
REMARK  10 active torsions:
REMARK  status: ('A' for Active; 'I' for Inactive)
REMARK    1  A    between atoms: O_4  and  C_21 
REMARK    2  A    between atoms: O_4  and  C_26 
REMARK    3  A    between atoms: O_5  and  C_22 
REMARK    4  A    between atoms: O_8  and  N_12 
REMARK    5  A    between atoms: CA_16  and  N_11 
REMARK       I    between atoms: N_11  and  C_23 
REMARK    6  A    between atoms: N_14  and  C_29 
REMARK    7  A    between atoms: CA_18  and  C_22 
REMARK    8  A    between atoms: C_19  and  C_21 
REMARK    9  A    between atoms: C_23  and  C_24 
REMARK   10  A    between atoms: C_24  and  C_25 
ROOT
ATOM      1  S   UNL d   1      35.907  -6.315  -5.894  0.00  0.00    -0.136 SA
ATOM      2  O   UNL d   1      40.051  -6.591  -5.833  0.00  0.00    -0.271 OA
ATOM      3  N   UNL d   1      38.108  -7.746  -6.393  0.00  0.00    -0.293 N 
ATOM      4  C   UNL d   1      36.997  -7.702  -5.443  0.00  0.00     0.187 C 
ATOM      5  CA  UNL d   1      38.075  -7.416  -4.344  0.00  0.00     0.211 C 
ATOM      6  C   UNL d   1      38.985  -7.104  -5.572  0.00  0.00     0.251 C 
ATOM      7  CA  UNL d   1      37.946  -7.699  -7.757  0.00  0.00     0.117 C 
ATOM      8  C   UNL d   1      36.743  -7.398  -8.314  0.00  0.00    -0.013 C 
ATOM      9  C   UNL d   1      35.513  -7.019  -7.514  0.00  0.00     0.115 C 
ENDROOT
BRANCH   5  10
ATOM     10  N   UNL d   1      37.722  -6.395  -3.320  0.00  0.00    -0.339 N 
ATOM     11  C   UNL d   1      38.247  -6.538  -2.037  0.00  0.00     0.275 C 
ATOM     12  O   UNL d   1      37.984  -5.737  -1.141  0.00  0.00    -0.266 OA
ATOM     13  H   UNL d   1      37.371  -5.472  -3.581  0.00  0.00     0.163 HD
BRANCH  11  14
ATOM     14  C   UNL d   1      39.119  -7.775  -1.768  0.00  0.00     0.180 C 
ATOM     15  N   UNL d   1      38.663  -8.964  -1.485  0.00  0.00    -0.126 NA
BRANCH  15  16
ATOM     16  O   UNL d   1      37.271  -9.057  -1.443  0.00  0.00    -0.261 OA
ATOM     17  C   UNL d   1      36.878 -10.005  -2.434  0.00  0.00     0.240 C 
ENDBRANCH  15  16
BRANCH  14  18
ATOM     18  C   UNL d   1      40.579  -7.685  -1.807  0.00  0.00     0.102 A 
ATOM     19  N   UNL d   1      41.294  -6.890  -0.914  0.00  0.00    -0.222 NA
ATOM     20  C   UNL d   1      42.580  -7.042  -1.110  0.00  0.00     0.164 A 
ATOM     21  S   UNL d   1      43.024  -8.103  -2.381  0.00  0.00    -0.062 SA
ATOM     22  C   UNL d   1      41.372  -8.399  -2.692  0.00  0.00     0.087 A 
BRANCH  20  23
ATOM     23  N   UNL d   1      43.512  -6.425  -0.372  0.00  0.00    -0.378 N 
ATOM     24  H   UNL d   1      43.761  -6.823   0.524  0.00  0.00     0.158 HD
ATOM     25  H   UNL d   1      44.275  -5.977  -0.866  0.00  0.00     0.158 HD
ENDBRANCH  20  23
ENDBRANCH  14  18
ENDBRANCH  11  14
ENDBRANCH   5  10
BRANCH   7  26
ATOM     26  C   UNL d   1      39.103  -8.135  -8.627  0.00  0.00     0.194 C 
ATOM     27  OXT UNL d   1      39.301  -9.301  -8.944  0.00  0.00    -0.645 OA
BRANCH  26  28
ATOM     28  O   UNL d   1      39.983  -7.170  -8.952  0.00  0.00    -0.772 OA
ATOM     29  H   UNL d   1      39.627  -6.255  -8.979  0.00  0.00     0.167 HD
ENDBRANCH  26  28
ENDBRANCH   7  26
BRANCH   8  30
ATOM     30  C   UNL d   1      36.492  -7.336  -9.811  0.00  0.00     0.216 C 
BRANCH  30  31
ATOM     31  O   UNL d   1      36.515  -5.974 -10.256  0.00  0.00    -0.317 OA
BRANCH  31  32
ATOM     32  C   UNL d   1      37.610  -5.590 -10.962  0.00  0.00     0.255 C 
ATOM     33  O   UNL d   1      38.612  -5.067 -10.494  0.00  0.00    -0.266 OA
ATOM     34  C   UNL d   1      37.419  -5.908 -12.412  0.00  0.00     0.126 C 
ENDBRANCH  31  32
ENDBRANCH  30  31
ENDBRANCH   8  30
TORSDOF 10
ENDMDL
MODEL 7
REMARK VINA RESULT:      -6.9      3.543      5.500
REMARK  10 active torsions:
REMARK  status: ('A' for Active; 'I' for Inactive)
REMARK    1  A    between atoms: O_4  and  C_21 
REMARK    2  A    between atoms: O_4  and  C_26 
REMARK    3  A    between atoms: O_5  and  C_22 
REMARK    4  A    between atoms: O_8  and  N_12 
REMARK    5  A    between atoms: CA_16  and  N_11 
REMARK       I    between atoms: N_11  and  C_23 
REMARK    6  A    between atoms: N_14  and  C_29 
REMARK    7  A    between atoms: CA_18  and  C_22 
REMARK    8  A    between atoms: C_19  and  C_21 
REMARK    9  A    between atoms: C_23  and  C_24 
REMARK   10  A    between atoms: C_24  and  C_25 
ROOT
ATOM      1  S   UNL d   1      39.688  -6.984  -5.673  0.00  0.00    -0.136 SA
ATOM      2  O   UNL d   1      36.020  -6.126  -7.423  0.00  0.00    -0.271 OA
ATOM      3  N   UNL d   1      37.145  -7.681  -6.104  0.00  0.00    -0.293 N 
ATOM      4  C   UNL d   1      38.493  -8.069  -6.516  0.00  0.00     0.187 C 
ATOM      5  CA  UNL d   1      38.067  -7.650  -7.963  0.00  0.00     0.211 C 
ATOM      6  C   UNL d   1      36.894  -6.940  -7.219  0.00  0.00     0.251 C 
ATOM      7  CA  UNL d   1      36.772  -7.499  -4.794  0.00  0.00     0.117 C 
ATOM      8  C   UNL d   1      37.694  -7.465  -3.796  0.00  0.00    -0.013 C 
ATOM      9  C   UNL d   1      39.190  -7.546  -4.025  0.00  0.00     0.115 C 
ENDROOT
BRANCH   5  10
ATOM     10  N   UNL d   1      39.081  -6.910  -8.764  0.00  0.00    -0.339 N 
ATOM     11  C   UNL d   1      39.179  -7.189 -10.126  0.00  0.00     0.275 C 
ATOM     12  O   UNL d   1      40.004  -6.622 -10.841  0.00  0.00    -0.266 OA
ATOM     13  H   UNL d   1      39.486  -6.031  -8.436  0.00  0.00     0.163 HD
BRANCH  11  14
ATOM     14  C   UNL d   1      38.255  -8.281 -10.688  0.00  0.00     0.180 C 
ATOM     15  N   UNL d   1      38.509  -9.560 -10.665  0.00  0.00    -0.126 NA
BRANCH  15  16
ATOM     16  O   UNL d   1      39.725  -9.900 -10.069  0.00  0.00    -0.261 OA
ATOM     17  C   UNL d   1      39.460 -10.928  -9.117  0.00  0.00     0.240 C 
ENDBRANCH  15  16
BRANCH  14  18
ATOM     18  C   UNL d   1      36.980  -7.932 -11.316  0.00  0.00     0.102 A 
ATOM     19  N   UNL d   1      35.888  -8.795 -11.298  0.00  0.00    -0.222 NA
ATOM     20  C   UNL d   1      34.853  -8.221 -11.859  0.00  0.00     0.164 A 
ATOM     21  S   UNL d   1      35.115  -6.642 -12.474  0.00  0.00    -0.062 SA
ATOM     22  C   UNL d   1      36.734  -6.718 -11.939  0.00  0.00     0.087 A 
BRANCH  20  23
ATOM     23  N   UNL d   1      33.651  -8.805 -11.953  0.00  0.00    -0.378 N 
ATOM     24  H   UNL d   1      33.466  -9.403 -12.748  0.00  0.00     0.158 HD
ATOM     25  H   UNL d   1      33.203  -9.090 -11.091  0.00  0.00     0.158 HD
ENDBRANCH  20  23
ENDBRANCH  14  18
ENDBRANCH  11  14
ENDBRANCH   5  10
BRANCH   7  26
ATOM     26  C   UNL d   1      35.295  -7.483  -4.470  0.00  0.00     0.194 C 
ATOM     27  OXT UNL d   1      34.651  -8.496  -4.228  0.00  0.00    -0.645 OA
BRANCH  26  28
ATOM     28  O   UNL d   1      34.690  -6.285  -4.569  0.00  0.00    -0.772 OA
ATOM     29  H   UNL d   1      34.705  -5.867  -5.458  0.00  0.00     0.167 HD
ENDBRANCH  26  28
ENDBRANCH   7  26
BRANCH   8  30
ATOM     30  C   UNL d   1      37.351  -7.275  -2.328  0.00  0.00     0.216 C 
BRANCH  30  31
ATOM     31  O   UNL d   1      38.137  -6.211  -1.776  0.00  0.00    -0.317 OA
BRANCH  31  32
ATOM     32  C   UNL d   1      38.026  -6.015  -0.436  0.00  0.00     0.255 C 
ATOM     33  O   UNL d   1      36.985  -6.052   0.205  0.00  0.00    -0.266 OA
ATOM     34  C   UNL d   1      39.376  -5.750   0.154  0.00  0.00     0.126 C 
ENDBRANCH  31  32
ENDBRANCH  30  31
ENDBRANCH   8  30
TORSDOF 10
ENDMDL
MODEL 8
REMARK VINA RESULT:      -6.8      3.523      5.353
REMARK  10 active torsions:
REMARK  status: ('A' for Active; 'I' for Inactive)
REMARK    1  A    between atoms: O_4  and  C_21 
REMARK    2  A    between atoms: O_4  and  C_26 
REMARK    3  A    between atoms: O_5  and  C_22 
REMARK    4  A    between atoms: O_8  and  N_12 
REMARK    5  A    between atoms: CA_16  and  N_11 
REMARK       I    between atoms: N_11  and  C_23 
REMARK    6  A    between atoms: N_14  and  C_29 
REMARK    7  A    between atoms: CA_18  and  C_22 
REMARK    8  A    between atoms: C_19  and  C_21 
REMARK    9  A    between atoms: C_23  and  C_24 
REMARK   10  A    between atoms: C_24  and  C_25 
ROOT
ATOM      1  S   UNL d   1      38.959  -7.217  -5.126  0.00  0.00    -0.136 SA
ATOM      2  O   UNL d   1      35.045  -6.570  -6.357  0.00  0.00    -0.271 OA
ATOM      3  N   UNL d   1      36.496  -8.182  -5.510  0.00  0.00    -0.293 N 
ATOM      4  C   UNL d   1      37.832  -8.266  -6.099  0.00  0.00     0.187 C 
ATOM      5  CA  UNL d   1      37.203  -7.619  -7.378  0.00  0.00     0.211 C 
ATOM      6  C   UNL d   1      36.034  -7.268  -6.407  0.00  0.00     0.251 C 
ATOM      7  CA  UNL d   1      36.245  -8.339  -4.168  0.00  0.00     0.117 C 
ATOM      8  C   UNL d   1      37.256  -8.379  -3.260  0.00  0.00    -0.013 C 
ATOM      9  C   UNL d   1      38.717  -8.184  -3.614  0.00  0.00     0.115 C 
ENDROOT
BRANCH   5  10
ATOM     10  N   UNL d   1      38.021  -6.582  -8.066  0.00  0.00    -0.339 N 
ATOM     11  C   UNL d   1      38.313  -6.761  -9.417  0.00  0.00     0.275 C 
ATOM     12  O   UNL d   1      38.995  -5.948 -10.041  0.00  0.00    -0.266 OA
ATOM     13  H   UNL d   1      38.122  -5.639  -7.686  0.00  0.00     0.163 HD
BRANCH  11  14
ATOM     14  C   UNL d   1      37.800  -8.048 -10.083  0.00  0.00     0.180 C 
ATOM     15  N   UNL d   1      38.342  -9.227  -9.948  0.00  0.00    -0.126 NA
BRANCH  15  16
ATOM     16  O   UNL d   1      39.466  -9.257  -9.121  0.00  0.00    -0.261 OA
ATOM     17  C   UNL d   1      39.658 -10.611  -8.713  0.00  0.00     0.240 C 
ENDBRANCH  15  16
BRANCH  14  18
ATOM     18  C   UNL d   1      36.625  -8.023 -10.954  0.00  0.00     0.102 A 
ATOM     19  N   UNL d   1      35.506  -8.816 -10.708  0.00  0.00    -0.222 NA
ATOM     20  C   UNL d   1      34.568  -8.553 -11.583  0.00  0.00     0.164 A 
ATOM     21  S   UNL d   1      34.961  -7.382 -12.772  0.00  0.00    -0.062 SA
ATOM     22  C   UNL d   1      36.500  -7.194 -12.059  0.00  0.00     0.087 A 
BRANCH  20  23
ATOM     23  N   UNL d   1      33.366  -9.143 -11.570  0.00  0.00    -0.378 N 
ATOM     24  H   UNL d   1      33.182  -9.849 -10.869  0.00  0.00     0.158 HD
ATOM     25  H   UNL d   1      32.566  -8.575 -11.824  0.00  0.00     0.158 HD
ENDBRANCH  20  23
ENDBRANCH  14  18
ENDBRANCH  11  14
ENDBRANCH   5  10
BRANCH   7  26
ATOM     26  C   UNL d   1      34.821  -8.614  -3.738  0.00  0.00     0.194 C 
ATOM     27  OXT UNL d   1      34.069  -7.744  -3.319  0.00  0.00    -0.645 OA
BRANCH  26  28
ATOM     28  O   UNL d   1      34.452  -9.908  -3.739  0.00  0.00    -0.772 OA
ATOM     29  H   UNL d   1      33.511 -10.086  -3.958  0.00  0.00     0.167 HD
ENDBRANCH  26  28
ENDBRANCH   7  26
BRANCH   8  30
ATOM     30  C   UNL d   1      37.050  -8.558  -1.766  0.00  0.00     0.216 C 
BRANCH  30  31
ATOM     31  O   UNL d   1      36.627  -7.320  -1.178  0.00  0.00    -0.317 OA
BRANCH  31  32
ATOM     32  C   UNL d   1      37.586  -6.600  -0.540  0.00  0.00     0.255 C 
ATOM     33  O   UNL d   1      38.315  -5.767  -1.060  0.00  0.00    -0.266 OA
ATOM     34  C   UNL d   1      37.620  -6.969   0.910  0.00  0.00     0.126 C 
ENDBRANCH  31  32
ENDBRANCH  30  31
ENDBRANCH   8  30
TORSDOF 10
ENDMDL
MODEL 9
REMARK VINA RESULT:      -6.7      3.850      6.370
REMARK  10 active torsions:
REMARK  status: ('A' for Active; 'I' for Inactive)
REMARK    1  A    between atoms: O_4  and  C_21 
REMARK    2  A    between atoms: O_4  and  C_26 
REMARK    3  A    between atoms: O_5  and  C_22 
REMARK    4  A    between atoms: O_8  and  N_12 
REMARK    5  A    between atoms: CA_16  and  N_11 
REMARK       I    between atoms: N_11  and  C_23 
REMARK    6  A    between atoms: N_14  and  C_29 
REMARK    7  A    between atoms: CA_18  and  C_22 
REMARK    8  A    between atoms: C_19  and  C_21 
REMARK    9  A    between atoms: C_23  and  C_24 
REMARK   10  A    between atoms: C_24  and  C_25 
ROOT
ATOM      1  S   UNL d   1      38.530 -10.916  -3.554  0.00  0.00    -0.136 SA
ATOM      2  O   UNL d   1      40.367  -8.336  -0.867  0.00  0.00    -0.271 OA
ATOM      3  N   UNL d   1      39.115  -8.411  -2.829  0.00  0.00    -0.293 N 
ATOM      4  C   UNL d   1      39.497  -9.399  -3.838  0.00  0.00     0.187 C 
ATOM      5  CA  UNL d   1      40.927  -9.351  -3.203  0.00  0.00     0.211 C 
ATOM      6  C   UNL d   1      40.185  -8.654  -2.022  0.00  0.00     0.251 C 
ATOM      7  CA  UNL d   1      37.812  -8.091  -2.533  0.00  0.00     0.117 C 
ATOM      8  C   UNL d   1      36.777  -8.827  -3.016  0.00  0.00    -0.013 C 
ATOM      9  C   UNL d   1      36.949 -10.085  -3.845  0.00  0.00     0.115 C 
ENDROOT
BRANCH   5  10
ATOM     10  N   UNL d   1      41.631 -10.655  -3.058  0.00  0.00    -0.339 N 
ATOM     11  C   UNL d   1      42.999 -10.700  -3.320  0.00  0.00     0.275 C 
ATOM     12  O   UNL d   1      43.637 -11.748  -3.232  0.00  0.00    -0.266 OA
ATOM     13  H   UNL d   1      41.235 -11.421  -2.510  0.00  0.00     0.163 HD
BRANCH  11  14
ATOM     14  C   UNL d   1      43.669  -9.397  -3.786  0.00  0.00     0.180 C 
ATOM     15  N   UNL d   1      44.039  -8.424  -3.000  0.00  0.00    -0.126 NA
BRANCH  15  16
ATOM     16  O   UNL d   1      43.786  -8.645  -1.645  0.00  0.00    -0.261 OA
ATOM     17  C   UNL d   1      43.824  -7.377  -0.992  0.00  0.00     0.240 C 
ENDBRANCH  15  16
BRANCH  14  18
ATOM     18  C   UNL d   1      43.935  -9.158  -5.205  0.00  0.00     0.102 A 
ATOM     19  N   UNL d   1      42.938  -8.737  -6.082  0.00  0.00    -0.222 NA
ATOM     20  C   UNL d   1      43.447  -8.523  -7.270  0.00  0.00     0.164 A 
ATOM     21  S   UNL d   1      45.124  -8.840  -7.433  0.00  0.00    -0.062 SA
ATOM     22  C   UNL d   1      45.187  -9.285  -5.787  0.00  0.00     0.087 A 
BRANCH  20  23
ATOM     23  N   UNL d   1      42.728  -8.078  -8.307  0.00  0.00    -0.378 N 
ATOM     24  H   UNL d   1      42.953  -8.418  -9.234  0.00  0.00     0.158 HD
ATOM     25  H   UNL d   1      41.744  -7.896  -8.148  0.00  0.00     0.158 HD
ENDBRANCH  20  23
ENDBRANCH  14  18
ENDBRANCH  11  14
ENDBRANCH   5  10
BRANCH   7  26
ATOM     26  C   UNL d   1      37.549  -6.810  -1.773  0.00  0.00     0.194 C 
ATOM     27  OXT UNL d   1      37.492  -6.756  -0.550  0.00  0.00    -0.645 OA
BRANCH  26  28
ATOM     28  O   UNL d   1      37.270  -5.732  -2.528  0.00  0.00    -0.772 OA
ATOM     29  H   UNL d   1      38.037  -5.173  -2.781  0.00  0.00     0.167 HD
ENDBRANCH  26  28
ENDBRANCH   7  26
BRANCH   8  30
ATOM     30  C   UNL d   1      35.315  -8.525  -2.734  0.00  0.00     0.216 C 
BRANCH  30  31
ATOM     31  O   UNL d   1      34.843  -7.510  -3.630  0.00  0.00    -0.317 OA
BRANCH  31  32
ATOM     32  C   UNL d   1      33.761  -7.832  -4.386  0.00  0.00     0.255 C 
ATOM     33  O   UNL d   1      32.603  -7.868  -3.994  0.00  0.00    -0.266 OA
ATOM     34  C   UNL d   1      34.190  -8.134  -5.788  0.00  0.00     0.126 C 
ENDBRANCH  31  32
ENDBRANCH  30  31
ENDBRANCH   8  30
TORSDOF 10
ENDMDL
