MODEL 1
REMARK VINA RESULT:      -7.6      0.000      0.000
REMARK  10 active torsions:
REMARK  status: ('A' for Active; 'I' for Inactive)
REMARK    1  A    between atoms: O_4  and  C_21 
REMARK    2  A    between atoms: O_4  and  C_26 
REMARK    3  A    between atoms: O_5  and  C_22 
REMARK    4  A    between atoms: O_8  and  N_12 
REMARK    5  A    between atoms: CA_16  and  N_11 
REMARK       I    between atoms: N_11  and  C_23 
REMARK    6  A    between atoms: N_14  and  C_29 
REMARK    7  A    between atoms: CA_18  and  C_22 
REMARK    8  A    between atoms: C_19  and  C_21 
REMARK    9  A    between atoms: C_23  and  C_24 
REMARK   10  A    between atoms: C_24  and  C_25 
ROOT
ATOM      1  S   UNL d   1      38.610  -9.632  -1.987  0.00  0.00    -0.136 SA
ATOM      2  O   UNL d   1      41.954  -7.331  -2.841  0.00  0.00    -0.271 OA
ATOM      3  N   UNL d   1      39.735  -7.225  -2.151  0.00  0.00    -0.293 N 
ATOM      4  C   UNL d   1      38.762  -8.038  -2.862  0.00  0.00     0.187 C 
ATOM      5  CA  UNL d   1      39.750  -7.976  -4.081  0.00  0.00     0.211 C 
ATOM      6  C   UNL d   1      40.774  -7.520  -2.986  0.00  0.00     0.251 C 
ATOM      7  CA  UNL d   1      39.701  -6.997  -0.799  0.00  0.00     0.117 C 
ATOM      8  C   UNL d   1      38.894  -7.723   0.014  0.00  0.00    -0.013 C 
ATOM      9  C   UNL d   1      37.986  -8.845  -0.472  0.00  0.00     0.115 C 
ENDROOT
BRANCH   5  10
ATOM     10  N   UNL d   1      39.872  -9.217  -4.899  0.00  0.00    -0.339 N 
ATOM     11  C   UNL d   1      39.148  -9.300  -6.100  0.00  0.00     0.275 C 
ATOM     12  O   UNL d   1      39.198 -10.300  -6.810  0.00  0.00    -0.266 OA
ATOM     13  H   UNL d   1      40.668  -9.848  -4.795  0.00  0.00     0.163 HD
BRANCH  11  14
ATOM     14  C   UNL d   1      38.227  -8.109  -6.458  0.00  0.00     0.180 C 
ATOM     15  N   UNL d   1      38.524  -7.106  -7.239  0.00  0.00    -0.126 NA
BRANCH  15  16
ATOM     16  O   UNL d   1      39.814  -7.093  -7.766  0.00  0.00    -0.261 OA
ATOM     17  C   UNL d   1      39.716  -7.516  -9.133  0.00  0.00     0.240 C 
ENDBRANCH  15  16
BRANCH  14  18
ATOM     18  C   UNL d   1      36.899  -7.994  -5.860  0.00  0.00     0.102 A 
ATOM     19  N   UNL d   1      36.388  -8.979  -5.021  0.00  0.00    -0.222 NA
ATOM     20  C   UNL d   1      35.268  -8.568  -4.479  0.00  0.00     0.164 A 
ATOM     21  S   UNL d   1      34.711  -7.028  -4.985  0.00  0.00    -0.062 SA
ATOM     22  C   UNL d   1      36.088  -6.874  -5.981  0.00  0.00     0.087 A 
BRANCH  20  23
ATOM     23  N   UNL d   1      34.603  -9.285  -3.568  0.00  0.00    -0.378 N 
ATOM     24  H   UNL d   1      33.806  -8.866  -3.106  0.00  0.00     0.158 HD
ATOM     25  H   UNL d   1      34.532 -10.282  -3.728  0.00  0.00     0.158 HD
ENDBRANCH  20  23
ENDBRANCH  14  18
ENDBRANCH  11  14
ENDBRANCH   5  10
BRANCH   7  26
ATOM     26  C   UNL d   1      40.481  -5.812  -0.256  0.00  0.00     0.194 C 
ATOM     27  OXT UNL d   1      39.957  -4.758   0.079  0.00  0.00    -0.645 OA
BRANCH  26  28
ATOM     28  O   UNL d   1      41.820  -5.941  -0.302  0.00  0.00    -0.772 OA
ATOM     29  H   UNL d   1      42.206  -6.035  -1.202  0.00  0.00     0.167 HD
ENDBRANCH  26  28
ENDBRANCH   7  26
BRANCH   8  30
ATOM     30  C   UNL d   1      38.829  -7.543   1.523  0.00  0.00     0.216 C 
BRANCH  30  31
ATOM     31  O   UNL d   1      37.516  -7.098   1.907  0.00  0.00    -0.317 OA
BRANCH  31  32
ATOM     32  C   UNL d   1      37.016  -7.614   3.060  0.00  0.00     0.255 C 
ATOM     33  O   UNL d   1      36.312  -7.016   3.859  0.00  0.00    -0.266 OA
ATOM     34  C   UNL d   1      37.443  -9.042   3.210  0.00  0.00     0.126 C 
ENDBRANCH  31  32
ENDBRANCH  30  31
ENDBRANCH   8  30
TORSDOF 10
ENDMDL
MODEL 2
REMARK VINA RESULT:      -7.3      1.951      2.735
REMARK  10 active torsions:
REMARK  status: ('A' for Active; 'I' for Inactive)
REMARK    1  A    between atoms: O_4  and  C_21 
REMARK    2  A    between atoms: O_4  and  C_26 
REMARK    3  A    between atoms: O_5  and  C_22 
REMARK    4  A    between atoms: O_8  and  N_12 
REMARK    5  A    between atoms: CA_16  and  N_11 
REMARK       I    between atoms: N_11  and  C_23 
REMARK    6  A    between atoms: N_14  and  C_29 
REMARK    7  A    between atoms: CA_18  and  C_22 
REMARK    8  A    between atoms: C_19  and  C_21 
REMARK    9  A    between atoms: C_23  and  C_24 
REMARK   10  A    between atoms: C_24  and  C_25 
ROOT
ATOM      1  S   UNL d   1      37.482  -8.503  -2.713  0.00  0.00    -0.136 SA
ATOM      2  O   UNL d   1      41.612  -8.461  -2.321  0.00  0.00    -0.271 OA
ATOM      3  N   UNL d   1      39.728  -7.100  -2.439  0.00  0.00    -0.293 N 
ATOM      4  C   UNL d   1      38.734  -7.402  -3.456  0.00  0.00     0.187 C 
ATOM      5  CA  UNL d   1      39.904  -8.077  -4.258  0.00  0.00     0.211 C 
ATOM      6  C   UNL d   1      40.629  -8.033  -2.868  0.00  0.00     0.251 C 
ATOM      7  CA  UNL d   1      39.424  -6.655  -1.178  0.00  0.00     0.117 C 
ATOM      8  C   UNL d   1      38.154  -6.701  -0.707  0.00  0.00    -0.013 C 
ATOM      9  C   UNL d   1      36.974  -7.255  -1.495  0.00  0.00     0.115 C 
ENDROOT
BRANCH   5  10
ATOM     10  N   UNL d   1      39.564  -9.323  -5.003  0.00  0.00    -0.339 N 
ATOM     11  C   UNL d   1      39.618  -9.297  -6.407  0.00  0.00     0.275 C 
ATOM     12  O   UNL d   1      39.337 -10.287  -7.076  0.00  0.00    -0.266 OA
ATOM     13  H   UNL d   1      39.604 -10.239  -4.556  0.00  0.00     0.163 HD
BRANCH  11  14
ATOM     14  C   UNL d   1      39.974  -7.951  -7.080  0.00  0.00     0.180 C 
ATOM     15  N   UNL d   1      41.163  -7.420  -7.170  0.00  0.00    -0.126 NA
BRANCH  15  16
ATOM     16  O   UNL d   1      42.202  -8.121  -6.562  0.00  0.00    -0.261 OA
ATOM     17  C   UNL d   1      43.129  -8.484  -7.596  0.00  0.00     0.240 C 
ENDBRANCH  15  16
BRANCH  14  18
ATOM     18  C   UNL d   1      38.926  -7.104  -7.644  0.00  0.00     0.102 A 
ATOM     19  N   UNL d   1      38.973  -6.662  -8.962  0.00  0.00    -0.222 NA
ATOM     20  C   UNL d   1      37.848  -6.072  -9.278  0.00  0.00     0.164 A 
ATOM     21  S   UNL d   1      36.695  -5.933  -8.017  0.00  0.00    -0.062 SA
ATOM     22  C   UNL d   1      37.762  -6.757  -6.971  0.00  0.00     0.087 A 
BRANCH  20  23
ATOM     23  N   UNL d   1      37.591  -5.622 -10.510  0.00  0.00    -0.378 N 
ATOM     24  H   UNL d   1      36.628  -5.466 -10.779  0.00  0.00     0.158 HD
ATOM     25  H   UNL d   1      38.260  -4.981 -10.915  0.00  0.00     0.158 HD
ENDBRANCH  20  23
ENDBRANCH  14  18
ENDBRANCH  11  14
ENDBRANCH   5  10
BRANCH   7  26
ATOM     26  C   UNL d   1      40.521  -5.971  -0.380  0.00  0.00     0.194 C 
ATOM     27  OXT UNL d   1      40.555  -4.764  -0.182  0.00  0.00    -0.645 OA
BRANCH  26  28
ATOM     28  O   UNL d   1      41.545  -6.766  -0.022  0.00  0.00    -0.772 OA
ATOM     29  H   UNL d   1      41.750  -6.787   0.940  0.00  0.00     0.167 HD
ENDBRANCH  26  28
ENDBRANCH   7  26
BRANCH   8  30
ATOM     30  C   UNL d   1      37.751  -6.250   0.690  0.00  0.00     0.216 C 
BRANCH  30  31
ATOM     31  O   UNL d   1      37.218  -7.363   1.429  0.00  0.00    -0.317 OA
BRANCH  31  32
ATOM     32  C   UNL d   1      37.992  -7.844   2.438  0.00  0.00     0.255 C 
ATOM     33  O   UNL d   1      39.176  -7.595   2.606  0.00  0.00    -0.266 OA
ATOM     34  C   UNL d   1      37.176  -8.721   3.336  0.00  0.00     0.126 C 
ENDBRANCH  31  32
ENDBRANCH  30  31
ENDBRANCH   8  30
TORSDOF 10
ENDMDL
MODEL 3
REMARK VINA RESULT:      -7.2      3.595      6.367
REMARK  10 active torsions:
REMARK  status: ('A' for Active; 'I' for Inactive)
REMARK    1  A    between atoms: O_4  and  C_21 
REMARK    2  A    between atoms: O_4  and  C_26 
REMARK    3  A    between atoms: O_5  and  C_22 
REMARK    4  A    between atoms: O_8  and  N_12 
REMARK    5  A    between atoms: CA_16  and  N_11 
REMARK       I    between atoms: N_11  and  C_23 
REMARK    6  A    between atoms: N_14  and  C_29 
REMARK    7  A    between atoms: CA_18  and  C_22 
REMARK    8  A    between atoms: C_19  and  C_21 
REMARK    9  A    between atoms: C_23  and  C_24 
REMARK   10  A    between atoms: C_24  and  C_25 
ROOT
ATOM      1  S   UNL d   1      38.256 -10.902  -3.783  0.00  0.00    -0.136 SA
ATOM      2  O   UNL d   1      39.926  -8.670  -0.711  0.00  0.00    -0.271 OA
ATOM      3  N   UNL d   1      38.886  -8.515  -2.787  0.00  0.00    -0.293 N 
ATOM      4  C   UNL d   1      39.323  -9.423  -3.835  0.00  0.00     0.187 C 
ATOM      5  CA  UNL d   1      40.691  -9.492  -3.067  0.00  0.00     0.211 C 
ATOM      6  C   UNL d   1      39.846  -8.893  -1.892  0.00  0.00     0.251 C 
ATOM      7  CA  UNL d   1      37.584  -8.128  -2.603  0.00  0.00     0.117 C 
ATOM      8  C   UNL d   1      36.568  -8.763  -3.237  0.00  0.00    -0.013 C 
ATOM      9  C   UNL d   1      36.759  -9.948  -4.173  0.00  0.00     0.115 C 
ENDROOT
BRANCH   5  10
ATOM     10  N   UNL d   1      41.368 -10.821  -3.040  0.00  0.00    -0.339 N 
ATOM     11  C   UNL d   1      42.744 -10.876  -3.319  0.00  0.00     0.275 C 
ATOM     12  O   UNL d   1      43.354 -11.941  -3.324  0.00  0.00    -0.266 OA
ATOM     13  H   UNL d   1      40.967 -11.613  -2.536  0.00  0.00     0.163 HD
BRANCH  11  14
ATOM     14  C   UNL d   1      43.446  -9.549  -3.693  0.00  0.00     0.180 C 
ATOM     15  N   UNL d   1      43.438  -8.969  -4.863  0.00  0.00    -0.126 NA
BRANCH  15  16
ATOM     16  O   UNL d   1      42.762  -9.639  -5.880  0.00  0.00    -0.261 OA
ATOM     17  C   UNL d   1      41.880  -8.690  -6.497  0.00  0.00     0.240 C 
ENDBRANCH  15  16
BRANCH  14  18
ATOM     18  C   UNL d   1      44.266  -8.842  -2.711  0.00  0.00     0.102 A 
ATOM     19  N   UNL d   1      43.806  -7.703  -2.059  0.00  0.00    -0.222 NA
ATOM     20  C   UNL d   1      44.643  -7.359  -1.112  0.00  0.00     0.164 A 
ATOM     21  S   UNL d   1      46.060  -8.314  -0.983  0.00  0.00    -0.062 SA
ATOM     22  C   UNL d   1      45.504  -9.288  -2.268  0.00  0.00     0.087 A 
BRANCH  20  23
ATOM     23  N   UNL d   1      44.406  -6.345  -0.275  0.00  0.00    -0.378 N 
ATOM     24  H   UNL d   1      44.034  -5.482  -0.649  0.00  0.00     0.158 HD
ATOM     25  H   UNL d   1      44.090  -6.581   0.657  0.00  0.00     0.158 HD
ENDBRANCH  20  23
ENDBRANCH  14  18
ENDBRANCH  11  14
ENDBRANCH   5  10
BRANCH   7  26
ATOM     26  C   UNL d   1      37.322  -6.874  -1.786  0.00  0.00     0.194 C 
ATOM     27  OXT UNL d   1      36.941  -6.896  -0.623  0.00  0.00    -0.645 OA
BRANCH  26  28
ATOM     28  O   UNL d   1      37.396  -5.720  -2.474  0.00  0.00    -0.772 OA
ATOM     29  H   UNL d   1      36.817  -4.994  -2.149  0.00  0.00     0.167 HD
ENDBRANCH  26  28
ENDBRANCH   7  26
BRANCH   8  30
ATOM     30  C   UNL d   1      35.100  -8.404  -3.056  0.00  0.00     0.216 C 
BRANCH  30  31
ATOM     31  O   UNL d   1      34.509  -8.101  -4.332  0.00  0.00    -0.317 OA
BRANCH  31  32
ATOM     32  C   UNL d   1      34.963  -6.984  -4.958  0.00  0.00     0.255 C 
ATOM     33  O   UNL d   1      35.132  -5.894  -4.433  0.00  0.00    -0.266 OA
ATOM     34  C   UNL d   1      35.245  -7.283  -6.398  0.00  0.00     0.126 C 
ENDBRANCH  31  32
ENDBRANCH  30  31
ENDBRANCH   8  30
TORSDOF 10
ENDMDL
MODEL 4
REMARK VINA RESULT:      -6.9      3.677      8.679
REMARK  10 active torsions:
REMARK  status: ('A' for Active; 'I' for Inactive)
REMARK    1  A    between atoms: O_4  and  C_21 
REMARK    2  A    between atoms: O_4  and  C_26 
REMARK    3  A    between atoms: O_5  and  C_22 
REMARK    4  A    between atoms: O_8  and  N_12 
REMARK    5  A    between atoms: CA_16  and  N_11 
REMARK       I    between atoms: N_11  and  C_23 
REMARK    6  A    between atoms: N_14  and  C_29 
REMARK    7  A    between atoms: CA_18  and  C_22 
REMARK    8  A    between atoms: C_19  and  C_21 
REMARK    9  A    between atoms: C_23  and  C_24 
REMARK   10  A    between atoms: C_24  and  C_25 
ROOT
ATOM      1  S   UNL d   1      39.407  -8.939  -7.819  0.00  0.00    -0.136 SA
ATOM      2  O   UNL d   1      35.502  -7.785  -7.024  0.00  0.00    -0.271 OA
ATOM      3  N   UNL d   1      37.634  -6.980  -7.495  0.00  0.00    -0.293 N 
ATOM      4  C   UNL d   1      38.757  -7.578  -6.792  0.00  0.00     0.187 C 
ATOM      5  CA  UNL d   1      37.726  -7.950  -5.667  0.00  0.00     0.211 C 
ATOM      6  C   UNL d   1      36.677  -7.657  -6.794  0.00  0.00     0.251 C 
ATOM      7  CA  UNL d   1      37.676  -6.578  -8.806  0.00  0.00     0.117 C 
ATOM      8  C   UNL d   1      38.701  -6.940  -9.616  0.00  0.00    -0.013 C 
ATOM      9  C   UNL d   1      39.863  -7.820  -9.176  0.00  0.00     0.115 C 
ENDROOT
BRANCH   5  10
ATOM     10  N   UNL d   1      37.919  -9.272  -5.004  0.00  0.00    -0.339 N 
ATOM     11  C   UNL d   1      37.367  -9.465  -3.726  0.00  0.00     0.275 C 
ATOM     12  O   UNL d   1      37.502 -10.526  -3.125  0.00  0.00    -0.266 OA
ATOM     13  H   UNL d   1      38.145 -10.110  -5.541  0.00  0.00     0.163 HD
BRANCH  11  14
ATOM     14  C   UNL d   1      36.644  -8.263  -3.076  0.00  0.00     0.180 C 
ATOM     15  N   UNL d   1      35.432  -7.852  -3.337  0.00  0.00    -0.126 NA
BRANCH  15  16
ATOM     16  O   UNL d   1      34.745  -8.546  -4.330  0.00  0.00    -0.261 OA
ATOM     17  C   UNL d   1      33.468  -8.910  -3.785  0.00  0.00     0.240 C 
ENDBRANCH  15  16
BRANCH  14  18
ATOM     18  C   UNL d   1      37.336  -7.418  -2.105  0.00  0.00     0.102 A 
ATOM     19  N   UNL d   1      36.708  -6.969  -0.948  0.00  0.00    -0.222 NA
ATOM     20  C   UNL d   1      37.578  -6.383  -0.164  0.00  0.00     0.164 A 
ATOM     21  S   UNL d   1      39.174  -6.258  -0.777  0.00  0.00    -0.062 SA
ATOM     22  C   UNL d   1      38.681  -7.081  -2.188  0.00  0.00     0.087 A 
BRANCH  20  23
ATOM     23  N   UNL d   1      37.261  -5.928   1.052  0.00  0.00    -0.378 N 
ATOM     24  H   UNL d   1      37.424  -6.525   1.852  0.00  0.00     0.158 HD
ATOM     25  H   UNL d   1      37.388  -4.938   1.221  0.00  0.00     0.158 HD
ENDBRANCH  20  23
ENDBRANCH  14  18
ENDBRANCH  11  14
ENDBRANCH   5  10
BRANCH   7  26
ATOM     26  C   UNL d   1      36.622  -5.595  -9.284  0.00  0.00     0.194 C 
ATOM     27  OXT UNL d   1      36.415  -4.515  -8.746  0.00  0.00    -0.645 OA
BRANCH  26  28
ATOM     28  O   UNL d   1      35.818  -6.052 -10.262  0.00  0.00    -0.772 OA
ATOM     29  H   UNL d   1      34.912  -5.670 -10.280  0.00  0.00     0.167 HD
ENDBRANCH  26  28
ENDBRANCH   7  26
BRANCH   8  30
ATOM     30  C   UNL d   1      38.797  -6.554 -11.085  0.00  0.00     0.216 C 
BRANCH  30  31
ATOM     31  O   UNL d   1      39.502  -5.308 -11.220  0.00  0.00    -0.317 OA
BRANCH  31  32
ATOM     32  C   UNL d   1      39.289  -4.614 -12.369  0.00  0.00     0.255 C 
ATOM     33  O   UNL d   1      39.986  -3.703 -12.787  0.00  0.00    -0.266 OA
ATOM     34  C   UNL d   1      38.071  -5.139 -13.066  0.00  0.00     0.126 C 
ENDBRANCH  31  32
ENDBRANCH  30  31
ENDBRANCH   8  30
TORSDOF 10
ENDMDL
MODEL 5
REMARK VINA RESULT:      -6.8      2.581      4.090
REMARK  10 active torsions:
REMARK  status: ('A' for Active; 'I' for Inactive)
REMARK    1  A    between atoms: O_4  and  C_21 
REMARK    2  A    between atoms: O_4  and  C_26 
REMARK    3  A    between atoms: O_5  and  C_22 
REMARK    4  A    between atoms: O_8  and  N_12 
REMARK    5  A    between atoms: CA_16  and  N_11 
REMARK       I    between atoms: N_11  and  C_23 
REMARK    6  A    between atoms: N_14  and  C_29 
REMARK    7  A    between atoms: CA_18  and  C_22 
REMARK    8  A    between atoms: C_19  and  C_21 
REMARK    9  A    between atoms: C_23  and  C_24 
REMARK   10  A    between atoms: C_24  and  C_25 
ROOT
ATOM      1  S   UNL d   1      37.630  -8.908  -2.657  0.00  0.00    -0.136 SA
ATOM      2  O   UNL d   1      41.768  -8.840  -2.944  0.00  0.00    -0.271 OA
ATOM      3  N   UNL d   1      39.893  -7.506  -2.598  0.00  0.00    -0.293 N 
ATOM      4  C   UNL d   1      38.745  -7.710  -3.466  0.00  0.00     0.187 C 
ATOM      5  CA  UNL d   1      39.765  -8.271  -4.519  0.00  0.00     0.211 C 
ATOM      6  C   UNL d   1      40.709  -8.370  -3.271  0.00  0.00     0.251 C 
ATOM      7  CA  UNL d   1      39.801  -7.209  -1.262  0.00  0.00     0.117 C 
ATOM      8  C   UNL d   1      38.626  -7.329  -0.597  0.00  0.00    -0.013 C 
ATOM      9  C   UNL d   1      37.332  -7.812  -1.239  0.00  0.00     0.115 C 
ENDROOT
BRANCH   5  10
ATOM     10  N   UNL d   1      39.305  -9.431  -5.335  0.00  0.00    -0.339 N 
ATOM     11  C   UNL d   1      39.695  -9.497  -6.683  0.00  0.00     0.275 C 
ATOM     12  O   UNL d   1      39.338 -10.421  -7.408  0.00  0.00    -0.266 OA
ATOM     13  H   UNL d   1      39.003 -10.303  -4.898  0.00  0.00     0.163 HD
BRANCH  11  14
ATOM     14  C   UNL d   1      40.533  -8.322  -7.238  0.00  0.00     0.180 C 
ATOM     15  N   UNL d   1      40.073  -7.186  -7.688  0.00  0.00    -0.126 NA
BRANCH  15  16
ATOM     16  O   UNL d   1      38.688  -7.042  -7.704  0.00  0.00    -0.261 OA
ATOM     17  C   UNL d   1      38.305  -6.789  -9.064  0.00  0.00     0.240 C 
ENDBRANCH  15  16
BRANCH  14  18
ATOM     18  C   UNL d   1      41.985  -8.437  -7.356  0.00  0.00     0.102 A 
ATOM     19  N   UNL d   1      42.740  -7.492  -8.043  0.00  0.00    -0.222 NA
ATOM     20  C   UNL d   1      44.016  -7.720  -7.861  0.00  0.00     0.164 A 
ATOM     21  S   UNL d   1      44.405  -9.106  -6.932  0.00  0.00    -0.062 SA
ATOM     22  C   UNL d   1      42.740  -9.415  -6.722  0.00  0.00     0.087 A 
BRANCH  20  23
ATOM     23  N   UNL d   1      44.968  -6.914  -8.342  0.00  0.00    -0.378 N 
ATOM     24  H   UNL d   1      45.925  -7.062  -8.048  0.00  0.00     0.158 HD
ATOM     25  H   UNL d   1      44.856  -6.586  -9.293  0.00  0.00     0.158 HD
ENDBRANCH  20  23
ENDBRANCH  14  18
ENDBRANCH  11  14
ENDBRANCH   5  10
BRANCH   7  26
ATOM     26  C   UNL d   1      41.016  -6.600  -0.582  0.00  0.00     0.194 C 
ATOM     27  OXT UNL d   1      41.208  -5.394  -0.504  0.00  0.00    -0.645 OA
BRANCH  26  28
ATOM     28  O   UNL d   1      41.953  -7.483  -0.193  0.00  0.00    -0.772 OA
ATOM     29  H   UNL d   1      41.614  -8.300   0.238  0.00  0.00     0.167 HD
ENDBRANCH  26  28
ENDBRANCH   7  26
BRANCH   8  30
ATOM     30  C   UNL d   1      38.459  -7.044   0.888  0.00  0.00     0.216 C 
BRANCH  30  31
ATOM     31  O   UNL d   1      38.532  -8.271   1.634  0.00  0.00    -0.317 OA
BRANCH  31  32
ATOM     32  C   UNL d   1      38.423  -8.165   2.984  0.00  0.00     0.255 C 
ATOM     33  O   UNL d   1      39.279  -7.719   3.733  0.00  0.00    -0.266 OA
ATOM     34  C   UNL d   1      37.084  -8.665   3.432  0.00  0.00     0.126 C 
ENDBRANCH  31  32
ENDBRANCH  30  31
ENDBRANCH   8  30
TORSDOF 10
ENDMDL
MODEL 6
REMARK VINA RESULT:      -6.8      3.695      5.566
REMARK  10 active torsions:
REMARK  status: ('A' for Active; 'I' for Inactive)
REMARK    1  A    between atoms: O_4  and  C_21 
REMARK    2  A    between atoms: O_4  and  C_26 
REMARK    3  A    between atoms: O_5  and  C_22 
REMARK    4  A    between atoms: O_8  and  N_12 
REMARK    5  A    between atoms: CA_16  and  N_11 
REMARK       I    between atoms: N_11  and  C_23 
REMARK    6  A    between atoms: N_14  and  C_29 
REMARK    7  A    between atoms: CA_18  and  C_22 
REMARK    8  A    between atoms: C_19  and  C_21 
REMARK    9  A    between atoms: C_23  and  C_24 
REMARK   10  A    between atoms: C_24  and  C_25 
ROOT
ATOM      1  S   UNL d   1      39.534  -7.035  -5.576  0.00  0.00    -0.136 SA
ATOM      2  O   UNL d   1      35.875  -5.956  -7.206  0.00  0.00    -0.271 OA
ATOM      3  N   UNL d   1      36.981  -7.635  -6.035  0.00  0.00    -0.293 N 
ATOM      4  C   UNL d   1      38.304  -8.024  -6.493  0.00  0.00     0.187 C 
ATOM      5  CA  UNL d   1      37.862  -7.498  -7.905  0.00  0.00     0.211 C 
ATOM      6  C   UNL d   1      36.735  -6.787  -7.077  0.00  0.00     0.251 C 
ATOM      7  CA  UNL d   1      36.616  -7.568  -4.714  0.00  0.00     0.117 C 
ATOM      8  C   UNL d   1      37.544  -7.623  -3.727  0.00  0.00    -0.013 C 
ATOM      9  C   UNL d   1      39.042  -7.738  -3.975  0.00  0.00     0.115 C 
ENDROOT
BRANCH   5  10
ATOM     10  N   UNL d   1      38.904  -6.794  -8.706  0.00  0.00    -0.339 N 
ATOM     11  C   UNL d   1      39.019  -7.103 -10.072  0.00  0.00     0.275 C 
ATOM     12  O   UNL d   1      39.865  -6.566 -10.780  0.00  0.00    -0.266 OA
ATOM     13  H   UNL d   1      39.305  -5.908  -8.397  0.00  0.00     0.163 HD
BRANCH  11  14
ATOM     14  C   UNL d   1      38.084  -8.200 -10.633  0.00  0.00     0.180 C 
ATOM     15  N   UNL d   1      38.249  -9.490 -10.524  0.00  0.00    -0.126 NA
BRANCH  15  16
ATOM     16  O   UNL d   1      39.405  -9.913  -9.872  0.00  0.00    -0.261 OA
ATOM     17  C   UNL d   1      39.268 -11.322  -9.640  0.00  0.00     0.240 C 
ENDBRANCH  15  16
BRANCH  14  18
ATOM     18  C   UNL d   1      36.908  -7.839 -11.423  0.00  0.00     0.102 A 
ATOM     19  N   UNL d   1      35.793  -8.668 -11.493  0.00  0.00    -0.222 NA
ATOM     20  C   UNL d   1      34.816  -8.053 -12.112  0.00  0.00     0.164 A 
ATOM     21  S   UNL d   1      35.178  -6.490 -12.715  0.00  0.00    -0.062 SA
ATOM     22  C   UNL d   1      36.753  -6.622 -12.072  0.00  0.00     0.087 A 
BRANCH  20  23
ATOM     23  N   UNL d   1      33.600  -8.588 -12.249  0.00  0.00    -0.378 N 
ATOM     24  H   UNL d   1      33.513  -9.490 -12.701  0.00  0.00     0.158 HD
ATOM     25  H   UNL d   1      32.933  -8.413 -11.509  0.00  0.00     0.158 HD
ENDBRANCH  20  23
ENDBRANCH  14  18
ENDBRANCH  11  14
ENDBRANCH   5  10
BRANCH   7  26
ATOM     26  C   UNL d   1      35.133  -7.582  -4.383  0.00  0.00     0.194 C 
ATOM     27  OXT UNL d   1      34.491  -8.609  -4.214  0.00  0.00    -0.645 OA
BRANCH  26  28
ATOM     28  O   UNL d   1      34.527  -6.381  -4.432  0.00  0.00    -0.772 OA
ATOM     29  H   UNL d   1      35.036  -5.633  -4.045  0.00  0.00     0.167 HD
ENDBRANCH  26  28
ENDBRANCH   7  26
BRANCH   8  30
ATOM     30  C   UNL d   1      37.211  -7.526  -2.245  0.00  0.00     0.216 C 
BRANCH  30  31
ATOM     31  O   UNL d   1      37.469  -6.194  -1.771  0.00  0.00    -0.317 OA
BRANCH  31  32
ATOM     32  C   UNL d   1      37.821  -6.075  -0.464  0.00  0.00     0.255 C 
ATOM     33  O   UNL d   1      37.045  -6.010   0.477  0.00  0.00    -0.266 OA
ATOM     34  C   UNL d   1      39.313  -6.049  -0.334  0.00  0.00     0.126 C 
ENDBRANCH  31  32
ENDBRANCH  30  31
ENDBRANCH   8  30
TORSDOF 10
ENDMDL
MODEL 7
REMARK VINA RESULT:      -6.8      3.547      6.247
REMARK  10 active torsions:
REMARK  status: ('A' for Active; 'I' for Inactive)
REMARK    1  A    between atoms: O_4  and  C_21 
REMARK    2  A    between atoms: O_4  and  C_26 
REMARK    3  A    between atoms: O_5  and  C_22 
REMARK    4  A    between atoms: O_8  and  N_12 
REMARK    5  A    between atoms: CA_16  and  N_11 
REMARK       I    between atoms: N_11  and  C_23 
REMARK    6  A    between atoms: N_14  and  C_29 
REMARK    7  A    between atoms: CA_18  and  C_22 
REMARK    8  A    between atoms: C_19  and  C_21 
REMARK    9  A    between atoms: C_23  and  C_24 
REMARK   10  A    between atoms: C_24  and  C_25 
ROOT
ATOM      1  S   UNL d   1      38.442 -10.816  -3.910  0.00  0.00    -0.136 SA
ATOM      2  O   UNL d   1      39.850  -8.682  -0.643  0.00  0.00    -0.271 OA
ATOM      3  N   UNL d   1      38.973  -8.461  -2.787  0.00  0.00    -0.293 N 
ATOM      4  C   UNL d   1      39.497  -9.329  -3.828  0.00  0.00     0.187 C 
ATOM      5  CA  UNL d   1      40.802  -9.417  -2.960  0.00  0.00     0.211 C 
ATOM      6  C   UNL d   1      39.863  -8.864  -1.833  0.00  0.00     0.251 C 
ATOM      7  CA  UNL d   1      37.656  -8.089  -2.691  0.00  0.00     0.117 C 
ATOM      8  C   UNL d   1      36.698  -8.708  -3.423  0.00  0.00    -0.013 C 
ATOM      9  C   UNL d   1      36.972  -9.859  -4.381  0.00  0.00     0.115 C 
ENDROOT
BRANCH   5  10
ATOM     10  N   UNL d   1      41.488 -10.741  -2.925  0.00  0.00    -0.339 N 
ATOM     11  C   UNL d   1      42.839 -10.804  -3.304  0.00  0.00     0.275 C 
ATOM     12  O   UNL d   1      43.453 -11.867  -3.308  0.00  0.00    -0.266 OA
ATOM     13  H   UNL d   1      41.129 -11.512  -2.360  0.00  0.00     0.163 HD
BRANCH  11  14
ATOM     14  C   UNL d   1      43.504  -9.493  -3.785  0.00  0.00     0.180 C 
ATOM     15  N   UNL d   1      43.931  -8.518  -3.031  0.00  0.00    -0.126 NA
BRANCH  15  16
ATOM     16  O   UNL d   1      43.728  -8.661  -1.660  0.00  0.00    -0.261 OA
ATOM     17  C   UNL d   1      43.357  -7.372  -1.151  0.00  0.00     0.240 C 
ENDBRANCH  15  16
BRANCH  14  18
ATOM     18  C   UNL d   1      43.653  -9.219  -5.213  0.00  0.00     0.102 A 
ATOM     19  N   UNL d   1      42.589  -8.763  -5.984  0.00  0.00    -0.222 NA
ATOM     20  C   UNL d   1      43.012  -8.428  -7.178  0.00  0.00     0.164 A 
ATOM     21  S   UNL d   1      44.676  -8.704  -7.488  0.00  0.00    -0.062 SA
ATOM     22  C   UNL d   1      44.861  -9.284  -5.894  0.00  0.00     0.087 A 
BRANCH  20  23
ATOM     23  N   UNL d   1      42.213  -7.881  -8.099  0.00  0.00    -0.378 N 
ATOM     24  H   UNL d   1      41.231  -8.125  -8.097  0.00  0.00     0.158 HD
ATOM     25  H   UNL d   1      42.420  -6.932  -8.383  0.00  0.00     0.158 HD
ENDBRANCH  20  23
ENDBRANCH  14  18
ENDBRANCH  11  14
ENDBRANCH   5  10
BRANCH   7  26
ATOM     26  C   UNL d   1      37.321  -6.866  -1.854  0.00  0.00     0.194 C 
ATOM     27  OXT UNL d   1      36.871  -6.931  -0.718  0.00  0.00    -0.645 OA
BRANCH  26  28
ATOM     28  O   UNL d   1      37.413  -5.690  -2.501  0.00  0.00    -0.772 OA
ATOM     29  H   UNL d   1      38.051  -5.666  -3.249  0.00  0.00     0.167 HD
ENDBRANCH  26  28
ENDBRANCH   7  26
BRANCH   8  30
ATOM     30  C   UNL d   1      35.217  -8.365  -3.345  0.00  0.00     0.216 C 
BRANCH  30  31
ATOM     31  O   UNL d   1      34.735  -7.975  -4.642  0.00  0.00    -0.317 OA
BRANCH  31  32
ATOM     32  C   UNL d   1      35.123  -6.751  -5.088  0.00  0.00     0.255 C 
ATOM     33  O   UNL d   1      35.162  -5.730  -4.418  0.00  0.00    -0.266 OA
ATOM     34  C   UNL d   1      35.515  -6.832  -6.531  0.00  0.00     0.126 C 
ENDBRANCH  31  32
ENDBRANCH  30  31
ENDBRANCH   8  30
TORSDOF 10
ENDMDL
MODEL 8
REMARK VINA RESULT:      -6.4     15.698     18.351
REMARK  10 active torsions:
REMARK  status: ('A' for Active; 'I' for Inactive)
REMARK    1  A    between atoms: O_4  and  C_21 
REMARK    2  A    between atoms: O_4  and  C_26 
REMARK    3  A    between atoms: O_5  and  C_22 
REMARK    4  A    between atoms: O_8  and  N_12 
REMARK    5  A    between atoms: CA_16  and  N_11 
REMARK       I    between atoms: N_11  and  C_23 
REMARK    6  A    between atoms: N_14  and  C_29 
REMARK    7  A    between atoms: CA_18  and  C_22 
REMARK    8  A    between atoms: C_19  and  C_21 
REMARK    9  A    between atoms: C_23  and  C_24 
REMARK   10  A    between atoms: C_24  and  C_25 
ROOT
ATOM      1  S   UNL d   1      29.188   0.805 -16.893  0.00  0.00    -0.136 SA
ATOM      2  O   UNL d   1      27.408   0.602 -13.152  0.00  0.00    -0.271 OA
ATOM      3  N   UNL d   1      29.165  -0.219 -14.436  0.00  0.00    -0.293 N 
ATOM      4  C   UNL d   1      28.877  -0.625 -15.802  0.00  0.00     0.187 C 
ATOM      5  CA  UNL d   1      27.402  -0.855 -15.317  0.00  0.00     0.211 C 
ATOM      6  C   UNL d   1      27.863   0.024 -14.104  0.00  0.00     0.251 C 
ATOM      7  CA  UNL d   1      30.325   0.402 -14.050  0.00  0.00     0.117 C 
ATOM      8  C   UNL d   1      31.187   0.909 -14.965  0.00  0.00    -0.013 C 
ATOM      9  C   UNL d   1      30.954   0.862 -16.469  0.00  0.00     0.115 C 
ENDROOT
BRANCH   5  10
ATOM     10  N   UNL d   1      26.323  -0.484 -16.278  0.00  0.00    -0.339 N 
ATOM     11  C   UNL d   1      25.095  -1.162 -16.199  0.00  0.00     0.275 C 
ATOM     12  O   UNL d   1      24.174  -0.910 -16.970  0.00  0.00    -0.266 OA
ATOM     13  H   UNL d   1      26.323   0.418 -16.757  0.00  0.00     0.163 HD
BRANCH  11  14
ATOM     14  C   UNL d   1      24.974  -2.291 -15.149  0.00  0.00     0.180 C 
ATOM     15  N   UNL d   1      25.356  -3.531 -15.295  0.00  0.00    -0.126 NA
BRANCH  15  16
ATOM     16  O   UNL d   1      25.886  -3.873 -16.537  0.00  0.00    -0.261 OA
ATOM     17  C   UNL d   1      27.153  -4.501 -16.298  0.00  0.00     0.240 C 
ENDBRANCH  15  16
BRANCH  14  18
ATOM     18  C   UNL d   1      24.329  -2.040 -13.861  0.00  0.00     0.102 A 
ATOM     19  N   UNL d   1      24.228  -0.757 -13.333  0.00  0.00    -0.222 NA
ATOM     20  C   UNL d   1      23.465  -0.770 -12.269  0.00  0.00     0.164 A 
ATOM     21  S   UNL d   1      22.883  -2.307 -11.782  0.00  0.00    -0.062 SA
ATOM     22  C   UNL d   1      23.681  -3.014 -13.115  0.00  0.00     0.087 A 
BRANCH  20  23
ATOM     23  N   UNL d   1      23.132   0.342 -11.608  0.00  0.00    -0.378 N 
ATOM     24  H   UNL d   1      23.441   1.235 -11.971  0.00  0.00     0.158 HD
ATOM     25  H   UNL d   1      22.229   0.354 -11.151  0.00  0.00     0.158 HD
ENDBRANCH  20  23
ENDBRANCH  14  18
ENDBRANCH  11  14
ENDBRANCH   5  10
BRANCH   7  26
ATOM     26  C   UNL d   1      30.691   0.375 -12.575  0.00  0.00     0.194 C 
ATOM     27  OXT UNL d   1      31.558  -0.352 -12.110  0.00  0.00    -0.645 OA
BRANCH  26  28
ATOM     28  O   UNL d   1      29.891   1.105 -11.777  0.00  0.00    -0.772 OA
ATOM     29  H   UNL d   1      30.336   1.545 -11.017  0.00  0.00     0.167 HD
ENDBRANCH  26  28
ENDBRANCH   7  26
BRANCH   8  30
ATOM     30  C   UNL d   1      32.476   1.634 -14.606  0.00  0.00     0.216 C 
BRANCH  30  31
ATOM     31  O   UNL d   1      32.686   2.736 -15.506  0.00  0.00    -0.317 OA
BRANCH  31  32
ATOM     32  C   UNL d   1      32.424   3.976 -15.015  0.00  0.00     0.255 C 
ATOM     33  O   UNL d   1      32.180   4.240 -13.847  0.00  0.00    -0.266 OA
ATOM     34  C   UNL d   1      32.490   4.988 -16.116  0.00  0.00     0.126 C 
ENDBRANCH  31  32
ENDBRANCH  30  31
ENDBRANCH   8  30
TORSDOF 10
ENDMDL
MODEL 9
REMARK VINA RESULT:      -6.2     19.196     22.713
REMARK  10 active torsions:
REMARK  status: ('A' for Active; 'I' for Inactive)
REMARK    1  A    between atoms: O_4  and  C_21 
REMARK    2  A    between atoms: O_4  and  C_26 
REMARK    3  A    between atoms: O_5  and  C_22 
REMARK    4  A    between atoms: O_8  and  N_12 
REMARK    5  A    between atoms: CA_16  and  N_11 
REMARK       I    between atoms: N_11  and  C_23 
REMARK    6  A    between atoms: N_14  and  C_29 
REMARK    7  A    between atoms: CA_18  and  C_22 
REMARK    8  A    between atoms: C_19  and  C_21 
REMARK    9  A    between atoms: C_23  and  C_24 
REMARK   10  A    between atoms: C_24  and  C_25 
ROOT
ATOM      1  S   UNL d   1      19.037  -5.926 -14.836  0.00  0.00    -0.136 SA
ATOM      2  O   UNL d   1      20.461  -7.310 -11.194  0.00  0.00    -0.271 OA
ATOM      3  N   UNL d   1      20.344  -7.797 -13.467  0.00  0.00    -0.293 N 
ATOM      4  C   UNL d   1      19.067  -7.611 -14.137  0.00  0.00     0.187 C 
ATOM      5  CA  UNL d   1      18.409  -7.819 -12.726  0.00  0.00     0.211 C 
ATOM      6  C   UNL d   1      19.864  -7.535 -12.215  0.00  0.00     0.251 C 
ATOM      7  CA  UNL d   1      21.558  -7.523 -14.042  0.00  0.00     0.117 C 
ATOM      8  C   UNL d   1      21.643  -6.820 -15.198  0.00  0.00    -0.013 C 
ATOM      9  C   UNL d   1      20.439  -6.261 -15.942  0.00  0.00     0.115 C 
ENDROOT
BRANCH   5  10
ATOM     10  N   UNL d   1      17.218  -6.976 -12.420  0.00  0.00    -0.339 N 
ATOM     11  C   UNL d   1      16.135  -7.568 -11.749  0.00  0.00     0.275 C 
ATOM     12  O   UNL d   1      15.122  -6.929 -11.481  0.00  0.00    -0.266 OA
ATOM     13  H   UNL d   1      17.280  -5.958 -12.389  0.00  0.00     0.163 HD
BRANCH  11  14
ATOM     14  C   UNL d   1      16.238  -9.077 -11.426  0.00  0.00     0.180 C 
ATOM     15  N   UNL d   1      16.869  -9.613 -10.417  0.00  0.00    -0.126 NA
BRANCH  15  16
ATOM     16  O   UNL d   1      17.548  -8.735  -9.575  0.00  0.00    -0.261 OA
ATOM     17  C   UNL d   1      18.669  -9.450  -9.034  0.00  0.00     0.240 C 
ENDBRANCH  15  16
BRANCH  14  18
ATOM     18  C   UNL d   1      15.646 -10.069 -12.322  0.00  0.00     0.102 A 
ATOM     19  N   UNL d   1      14.295 -10.394 -12.260  0.00  0.00    -0.222 NA
ATOM     20  C   UNL d   1      13.974 -11.168 -13.266  0.00  0.00     0.164 A 
ATOM     21  S   UNL d   1      15.262 -11.622 -14.303  0.00  0.00    -0.062 SA
ATOM     22  C   UNL d   1      16.331 -10.685 -13.360  0.00  0.00     0.087 A 
BRANCH  20  23
ATOM     23  N   UNL d   1      12.720 -11.567 -13.498  0.00  0.00    -0.378 N 
ATOM     24  H   UNL d   1      12.105 -11.722 -12.709  0.00  0.00     0.158 HD
ATOM     25  H   UNL d   1      12.269 -11.210 -14.330  0.00  0.00     0.158 HD
ENDBRANCH  20  23
ENDBRANCH  14  18
ENDBRANCH  11  14
ENDBRANCH   5  10
BRANCH   7  26
ATOM     26  C   UNL d   1      22.796  -8.156 -13.428  0.00  0.00     0.194 C 
ATOM     27  OXT UNL d   1      23.254  -9.230 -13.794  0.00  0.00    -0.645 OA
BRANCH  26  28
ATOM     28  O   UNL d   1      23.282  -7.523 -12.345  0.00  0.00    -0.772 OA
ATOM     29  H   UNL d   1      22.774  -6.733 -12.051  0.00  0.00     0.167 HD
ENDBRANCH  26  28
ENDBRANCH   7  26
BRANCH   8  30
ATOM     30  C   UNL d   1      22.957  -6.457 -15.874  0.00  0.00     0.216 C 
BRANCH  30  31
ATOM     31  O   UNL d   1      23.559  -5.335 -15.206  0.00  0.00    -0.317 OA
BRANCH  31  32
ATOM     32  C   UNL d   1      24.779  -5.548 -14.647  0.00  0.00     0.255 C 
ATOM     33  O   UNL d   1      25.070  -5.346 -13.477  0.00  0.00    -0.266 OA
ATOM     34  C   UNL d   1      25.727  -6.086 -15.674  0.00  0.00     0.126 C 
ENDBRANCH  31  32
ENDBRANCH  30  31
ENDBRANCH   8  30
TORSDOF 10
ENDMDL
