MODEL 1
REMARK VINA RESULT:      -7.3      0.000      0.000
REMARK  10 active torsions:
REMARK  status: ('A' for Active; 'I' for Inactive)
REMARK    1  A    between atoms: O_4  and  C_21 
REMARK    2  A    between atoms: O_4  and  C_26 
REMARK    3  A    between atoms: O_5  and  C_22 
REMARK    4  A    between atoms: O_8  and  N_12 
REMARK    5  A    between atoms: CA_16  and  N_11 
REMARK       I    between atoms: N_11  and  C_23 
REMARK    6  A    between atoms: N_14  and  C_29 
REMARK    7  A    between atoms: CA_18  and  C_22 
REMARK    8  A    between atoms: C_19  and  C_21 
REMARK    9  A    between atoms: C_23  and  C_24 
REMARK   10  A    between atoms: C_24  and  C_25 
ROOT
ATOM      1  S   UNL d   1      38.751  -9.537  -2.109  0.00  0.00    -0.136 SA
ATOM      2  O   UNL d   1      42.323  -7.631  -2.989  0.00  0.00    -0.271 OA
ATOM      3  N   UNL d   1      40.124  -7.275  -2.339  0.00  0.00    -0.293 N 
ATOM      4  C   UNL d   1      39.073  -8.002  -3.037  0.00  0.00     0.187 C 
ATOM      5  CA  UNL d   1      40.078  -8.083  -4.245  0.00  0.00     0.211 C 
ATOM      6  C   UNL d   1      41.138  -7.712  -3.141  0.00  0.00     0.251 C 
ATOM      7  CA  UNL d   1      40.100  -6.991  -0.999  0.00  0.00     0.117 C 
ATOM      8  C   UNL d   1      39.209  -7.594  -0.159  0.00  0.00    -0.013 C 
ATOM      9  C   UNL d   1      38.208  -8.638  -0.620  0.00  0.00     0.115 C 
ENDROOT
BRANCH   5  10
ATOM     10  N   UNL d   1      40.062  -9.349  -5.034  0.00  0.00    -0.339 N 
ATOM     11  C   UNL d   1      39.296  -9.410  -6.212  0.00  0.00     0.275 C 
ATOM     12  O   UNL d   1      39.244 -10.434  -6.884  0.00  0.00    -0.266 OA
ATOM     13  H   UNL d   1      40.797 -10.049  -4.920  0.00  0.00     0.163 HD
BRANCH  11  14
ATOM     14  C   UNL d   1      38.467  -8.159  -6.586  0.00  0.00     0.180 C 
ATOM     15  N   UNL d   1      38.839  -7.185  -7.373  0.00  0.00    -0.126 NA
BRANCH  15  16
ATOM     16  O   UNL d   1      40.134  -7.256  -7.879  0.00  0.00    -0.261 OA
ATOM     17  C   UNL d   1      40.034  -7.691  -9.244  0.00  0.00     0.240 C 
ENDBRANCH  15  16
BRANCH  14  18
ATOM     18  C   UNL d   1      37.147  -7.937  -5.995  0.00  0.00     0.102 A 
ATOM     19  N   UNL d   1      36.579  -8.849  -5.115  0.00  0.00    -0.222 NA
ATOM     20  C   UNL d   1      35.495  -8.344  -4.582  0.00  0.00     0.164 A 
ATOM     21  S   UNL d   1      35.033  -6.794  -5.150  0.00  0.00    -0.062 SA
ATOM     22  C   UNL d   1      36.411  -6.772  -6.159  0.00  0.00     0.087 A 
BRANCH  20  23
ATOM     23  N   UNL d   1      34.802  -8.973  -3.628  0.00  0.00    -0.378 N 
ATOM     24  H   UNL d   1      33.918  -9.403  -3.859  0.00  0.00     0.158 HD
ATOM     25  H   UNL d   1      35.331  -9.426  -2.893  0.00  0.00     0.158 HD
ENDBRANCH  20  23
ENDBRANCH  14  18
ENDBRANCH  11  14
ENDBRANCH   5  10
BRANCH   7  26
ATOM     26  C   UNL d   1      40.989  -5.867  -0.501  0.00  0.00     0.194 C 
ATOM     27  OXT UNL d   1      40.600  -4.723  -0.312  0.00  0.00    -0.645 OA
BRANCH  26  28
ATOM     28  O   UNL d   1      42.302  -6.171  -0.415  0.00  0.00    -0.772 OA
ATOM     29  H   UNL d   1      42.635  -6.339   0.493  0.00  0.00     0.167 HD
ENDBRANCH  26  28
ENDBRANCH   7  26
BRANCH   8  30
ATOM     30  C   UNL d   1      39.167  -7.365   1.344  0.00  0.00     0.216 C 
BRANCH  30  31
ATOM     31  O   UNL d   1      38.270  -8.308   1.958  0.00  0.00    -0.317 OA
BRANCH  31  32
ATOM     32  C   UNL d   1      38.151  -8.234   3.309  0.00  0.00     0.255 C 
ATOM     33  O   UNL d   1      38.983  -7.769   4.072  0.00  0.00    -0.266 OA
ATOM     34  C   UNL d   1      36.829  -8.795   3.737  0.00  0.00     0.126 C 
ENDBRANCH  31  32
ENDBRANCH  30  31
ENDBRANCH   8  30
TORSDOF 10
ENDMDL
MODEL 2
REMARK VINA RESULT:      -7.2      1.844      2.562
REMARK  10 active torsions:
REMARK  status: ('A' for Active; 'I' for Inactive)
REMARK    1  A    between atoms: O_4  and  C_21 
REMARK    2  A    between atoms: O_4  and  C_26 
REMARK    3  A    between atoms: O_5  and  C_22 
REMARK    4  A    between atoms: O_8  and  N_12 
REMARK    5  A    between atoms: CA_16  and  N_11 
REMARK       I    between atoms: N_11  and  C_23 
REMARK    6  A    between atoms: N_14  and  C_29 
REMARK    7  A    between atoms: CA_18  and  C_22 
REMARK    8  A    between atoms: C_19  and  C_21 
REMARK    9  A    between atoms: C_23  and  C_24 
REMARK   10  A    between atoms: C_24  and  C_25 
ROOT
ATOM      1  S   UNL d   1      37.509  -8.493  -2.718  0.00  0.00    -0.136 SA
ATOM      2  O   UNL d   1      41.629  -8.523  -2.281  0.00  0.00    -0.271 OA
ATOM      3  N   UNL d   1      39.775  -7.137  -2.442  0.00  0.00    -0.293 N 
ATOM      4  C   UNL d   1      38.784  -7.428  -3.468  0.00  0.00     0.187 C 
ATOM      5  CA  UNL d   1      39.953  -8.136  -4.247  0.00  0.00     0.211 C 
ATOM      6  C   UNL d   1      40.659  -8.098  -2.840  0.00  0.00     0.251 C 
ATOM      7  CA  UNL d   1      39.471  -6.660  -1.195  0.00  0.00     0.117 C 
ATOM      8  C   UNL d   1      38.190  -6.665  -0.724  0.00  0.00    -0.013 C 
ATOM      9  C   UNL d   1      37.017  -7.221  -1.510  0.00  0.00     0.115 C 
ENDROOT
BRANCH   5  10
ATOM     10  N   UNL d   1      39.593  -9.376  -4.996  0.00  0.00    -0.339 N 
ATOM     11  C   UNL d   1      39.626  -9.357  -6.402  0.00  0.00     0.275 C 
ATOM     12  O   UNL d   1      39.327 -10.347  -7.059  0.00  0.00    -0.266 OA
ATOM     13  H   UNL d   1      39.615 -10.290  -4.543  0.00  0.00     0.163 HD
BRANCH  11  14
ATOM     14  C   UNL d   1      39.988  -8.017  -7.087  0.00  0.00     0.180 C 
ATOM     15  N   UNL d   1      41.184  -7.507  -7.217  0.00  0.00    -0.126 NA
BRANCH  15  16
ATOM     16  O   UNL d   1      42.229  -8.216  -6.630  0.00  0.00    -0.261 OA
ATOM     17  C   UNL d   1      43.324  -8.204  -7.558  0.00  0.00     0.240 C 
ENDBRANCH  15  16
BRANCH  14  18
ATOM     18  C   UNL d   1      38.940  -7.144  -7.614  0.00  0.00     0.102 A 
ATOM     19  N   UNL d   1      38.993  -6.640  -8.907  0.00  0.00    -0.222 NA
ATOM     20  C   UNL d   1      37.862  -6.049  -9.206  0.00  0.00     0.164 A 
ATOM     21  S   UNL d   1      36.698  -5.981  -7.949  0.00  0.00    -0.062 SA
ATOM     22  C   UNL d   1      37.767  -6.843  -6.934  0.00  0.00     0.087 A 
BRANCH  20  23
ATOM     23  N   UNL d   1      37.606  -5.558 -10.422  0.00  0.00    -0.378 N 
ATOM     24  H   UNL d   1      38.281  -4.951 -10.864  0.00  0.00     0.158 HD
ATOM     25  H   UNL d   1      37.058  -6.135 -11.049  0.00  0.00     0.158 HD
ENDBRANCH  20  23
ENDBRANCH  14  18
ENDBRANCH  11  14
ENDBRANCH   5  10
BRANCH   7  26
ATOM     26  C   UNL d   1      40.577  -5.978  -0.411  0.00  0.00     0.194 C 
ATOM     27  OXT UNL d   1      40.639  -4.770  -0.229  0.00  0.00    -0.645 OA
BRANCH  26  28
ATOM     28  O   UNL d   1      41.597  -6.783  -0.042  0.00  0.00    -0.772 OA
ATOM     29  H   UNL d   1      41.330  -7.629   0.378  0.00  0.00     0.167 HD
ENDBRANCH  26  28
ENDBRANCH   7  26
BRANCH   8  30
ATOM     30  C   UNL d   1      37.794  -6.202   0.670  0.00  0.00     0.216 C 
BRANCH  30  31
ATOM     31  O   UNL d   1      37.254  -7.306   1.418  0.00  0.00    -0.317 OA
BRANCH  31  32
ATOM     32  C   UNL d   1      38.063  -7.845   2.366  0.00  0.00     0.255 C 
ATOM     33  O   UNL d   1      39.209  -7.498   2.605  0.00  0.00    -0.266 OA
ATOM     34  C   UNL d   1      37.337  -8.929   3.103  0.00  0.00     0.126 C 
ENDBRANCH  31  32
ENDBRANCH  30  31
ENDBRANCH   8  30
TORSDOF 10
ENDMDL
MODEL 3
REMARK VINA RESULT:      -7.2      3.510      6.454
REMARK  10 active torsions:
REMARK  status: ('A' for Active; 'I' for Inactive)
REMARK    1  A    between atoms: O_4  and  C_21 
REMARK    2  A    between atoms: O_4  and  C_26 
REMARK    3  A    between atoms: O_5  and  C_22 
REMARK    4  A    between atoms: O_8  and  N_12 
REMARK    5  A    between atoms: CA_16  and  N_11 
REMARK       I    between atoms: N_11  and  C_23 
REMARK    6  A    between atoms: N_14  and  C_29 
REMARK    7  A    between atoms: CA_18  and  C_22 
REMARK    8  A    between atoms: C_19  and  C_21 
REMARK    9  A    between atoms: C_23  and  C_24 
REMARK   10  A    between atoms: C_24  and  C_25 
ROOT
ATOM      1  S   UNL d   1      38.193 -10.880  -3.821  0.00  0.00    -0.136 SA
ATOM      2  O   UNL d   1      39.816  -8.763  -0.652  0.00  0.00    -0.271 OA
ATOM      3  N   UNL d   1      38.853  -8.541  -2.751  0.00  0.00    -0.293 N 
ATOM      4  C   UNL d   1      39.299  -9.433  -3.812  0.00  0.00     0.187 C 
ATOM      5  CA  UNL d   1      40.642  -9.552  -3.000  0.00  0.00     0.211 C 
ATOM      6  C   UNL d   1      39.765  -8.968  -1.830  0.00  0.00     0.251 C 
ATOM      7  CA  UNL d   1      37.559  -8.117  -2.600  0.00  0.00     0.117 C 
ATOM      8  C   UNL d   1      36.533  -8.703  -3.282  0.00  0.00    -0.013 C 
ATOM      9  C   UNL d   1      36.725  -9.879  -4.223  0.00  0.00     0.115 C 
ENDROOT
BRANCH   5  10
ATOM     10  N   UNL d   1      41.297 -10.893  -2.999  0.00  0.00    -0.339 N 
ATOM     11  C   UNL d   1      42.677 -10.979  -3.255  0.00  0.00     0.275 C 
ATOM     12  O   UNL d   1      43.255 -12.060  -3.276  0.00  0.00    -0.266 OA
ATOM     13  H   UNL d   1      40.858 -11.693  -2.540  0.00  0.00     0.163 HD
BRANCH  11  14
ATOM     14  C   UNL d   1      43.424  -9.662  -3.576  0.00  0.00     0.180 C 
ATOM     15  N   UNL d   1      43.494  -9.070  -4.738  0.00  0.00    -0.126 NA
BRANCH  15  16
ATOM     16  O   UNL d   1      42.882  -9.722  -5.805  0.00  0.00    -0.261 OA
ATOM     17  C   UNL d   1      42.014  -8.773  -6.442  0.00  0.00     0.240 C 
ENDBRANCH  15  16
BRANCH  14  18
ATOM     18  C   UNL d   1      44.203  -8.979  -2.544  0.00  0.00     0.102 A 
ATOM     19  N   UNL d   1      43.831  -7.733  -2.054  0.00  0.00    -0.222 NA
ATOM     20  C   UNL d   1      44.568  -7.420  -1.017  0.00  0.00     0.164 A 
ATOM     21  S   UNL d   1      45.800  -8.539  -0.608  0.00  0.00    -0.062 SA
ATOM     22  C   UNL d   1      45.288  -9.545  -1.890  0.00  0.00     0.087 A 
BRANCH  20  23
ATOM     23  N   UNL d   1      44.360  -6.316  -0.293  0.00  0.00    -0.378 N 
ATOM     24  H   UNL d   1      43.940  -6.395   0.621  0.00  0.00     0.158 HD
ATOM     25  H   UNL d   1      45.017  -5.554  -0.410  0.00  0.00     0.158 HD
ENDBRANCH  20  23
ENDBRANCH  14  18
ENDBRANCH  11  14
ENDBRANCH   5  10
BRANCH   7  26
ATOM     26  C   UNL d   1      37.319  -6.869  -1.771  0.00  0.00     0.194 C 
ATOM     27  OXT UNL d   1      36.935  -6.884  -0.610  0.00  0.00    -0.645 OA
BRANCH  26  28
ATOM     28  O   UNL d   1      37.413  -5.704  -2.449  0.00  0.00    -0.772 OA
ATOM     29  H   UNL d   1      38.091  -5.688  -3.160  0.00  0.00     0.167 HD
ENDBRANCH  26  28
ENDBRANCH   7  26
BRANCH   8  30
ATOM     30  C   UNL d   1      35.071  -8.317  -3.119  0.00  0.00     0.216 C 
BRANCH  30  31
ATOM     31  O   UNL d   1      34.513  -7.958  -4.395  0.00  0.00    -0.317 OA
BRANCH  31  32
ATOM     32  C   UNL d   1      35.015  -6.838  -4.978  0.00  0.00     0.255 C 
ATOM     33  O   UNL d   1      35.210  -5.770  -4.418  0.00  0.00    -0.266 OA
ATOM     34  C   UNL d   1      35.317  -7.104  -6.421  0.00  0.00     0.126 C 
ENDBRANCH  31  32
ENDBRANCH  30  31
ENDBRANCH   8  30
TORSDOF 10
ENDMDL
MODEL 4
REMARK VINA RESULT:      -7.0      3.715      7.729
REMARK  10 active torsions:
REMARK  status: ('A' for Active; 'I' for Inactive)
REMARK    1  A    between atoms: O_4  and  C_21 
REMARK    2  A    between atoms: O_4  and  C_26 
REMARK    3  A    between atoms: O_5  and  C_22 
REMARK    4  A    between atoms: O_8  and  N_12 
REMARK    5  A    between atoms: CA_16  and  N_11 
REMARK       I    between atoms: N_11  and  C_23 
REMARK    6  A    between atoms: N_14  and  C_29 
REMARK    7  A    between atoms: CA_18  and  C_22 
REMARK    8  A    between atoms: C_19  and  C_21 
REMARK    9  A    between atoms: C_23  and  C_24 
REMARK   10  A    between atoms: C_24  and  C_25 
ROOT
ATOM      1  S   UNL d   1      39.245  -6.547  -0.731  0.00  0.00    -0.136 SA
ATOM      2  O   UNL d   1      41.426  -7.312  -4.170  0.00  0.00    -0.271 OA
ATOM      3  N   UNL d   1      40.061  -8.285  -2.566  0.00  0.00    -0.293 N 
ATOM      4  C   UNL d   1      40.304  -7.964  -1.167  0.00  0.00     0.187 C 
ATOM      5  CA  UNL d   1      41.783  -7.655  -1.605  0.00  0.00     0.211 C 
ATOM      6  C   UNL d   1      41.146  -7.610  -3.044  0.00  0.00     0.251 C 
ATOM      7  CA  UNL d   1      38.815  -8.476  -3.103  0.00  0.00     0.117 C 
ATOM      8  C   UNL d   1      37.686  -8.125  -2.424  0.00  0.00    -0.013 C 
ATOM      9  C   UNL d   1      37.708  -7.472  -1.053  0.00  0.00     0.115 C 
ENDROOT
BRANCH   5  10
ATOM     10  N   UNL d   1      42.449  -6.507  -0.922  0.00  0.00    -0.339 N 
ATOM     11  C   UNL d   1      43.787  -6.642  -0.509  0.00  0.00     0.275 C 
ATOM     12  O   UNL d   1      44.371  -5.731   0.067  0.00  0.00    -0.266 OA
ATOM     13  H   UNL d   1      42.083  -5.558  -1.008  0.00  0.00     0.163 HD
BRANCH  11  14
ATOM     14  C   UNL d   1      44.471  -8.010  -0.749  0.00  0.00     0.180 C 
ATOM     15  N   UNL d   1      44.736  -8.917   0.153  0.00  0.00    -0.126 NA
BRANCH  15  16
ATOM     16  O   UNL d   1      44.422  -8.593   1.471  0.00  0.00    -0.261 OA
ATOM     17  C   UNL d   1      45.458  -9.138   2.301  0.00  0.00     0.240 C 
ENDBRANCH  15  16
BRANCH  14  18
ATOM     18  C   UNL d   1      44.953  -8.377  -2.080  0.00  0.00     0.102 A 
ATOM     19  N   UNL d   1      45.861  -7.584  -2.771  0.00  0.00    -0.222 NA
ATOM     20  C   UNL d   1      46.280  -8.210  -3.842  0.00  0.00     0.164 A 
ATOM     21  S   UNL d   1      45.565  -9.739  -4.144  0.00  0.00    -0.062 SA
ATOM     22  C   UNL d   1      44.651  -9.576  -2.710  0.00  0.00     0.087 A 
BRANCH  20  23
ATOM     23  N   UNL d   1      47.230  -7.715  -4.640  0.00  0.00    -0.378 N 
ATOM     24  H   UNL d   1      47.415  -6.723  -4.635  0.00  0.00     0.158 HD
ATOM     25  H   UNL d   1      48.029  -8.308  -4.833  0.00  0.00     0.158 HD
ENDBRANCH  20  23
ENDBRANCH  14  18
ENDBRANCH  11  14
ENDBRANCH   5  10
BRANCH   7  26
ATOM     26  C   UNL d   1      38.722  -9.237  -4.413  0.00  0.00     0.194 C 
ATOM     27  OXT UNL d   1      38.656 -10.457  -4.489  0.00  0.00    -0.645 OA
BRANCH  26  28
ATOM     28  O   UNL d   1      38.869  -8.485  -5.524  0.00  0.00    -0.772 OA
ATOM     29  H   UNL d   1      38.533  -7.565  -5.453  0.00  0.00     0.167 HD
ENDBRANCH  26  28
ENDBRANCH   7  26
BRANCH   8  30
ATOM     30  C   UNL d   1      36.278  -8.260  -2.985  0.00  0.00     0.216 C 
BRANCH  30  31
ATOM     31  O   UNL d   1      35.924  -7.069  -3.711  0.00  0.00    -0.317 OA
BRANCH  31  32
ATOM     32  C   UNL d   1      35.532  -7.243  -4.999  0.00  0.00     0.255 C 
ATOM     33  O   UNL d   1      36.248  -7.126  -5.982  0.00  0.00    -0.266 OA
ATOM     34  C   UNL d   1      34.083  -7.621  -5.047  0.00  0.00     0.126 C 
ENDBRANCH  31  32
ENDBRANCH  30  31
ENDBRANCH   8  30
TORSDOF 10
ENDMDL
MODEL 5
REMARK VINA RESULT:      -6.8      3.745      5.571
REMARK  10 active torsions:
REMARK  status: ('A' for Active; 'I' for Inactive)
REMARK    1  A    between atoms: O_4  and  C_21 
REMARK    2  A    between atoms: O_4  and  C_26 
REMARK    3  A    between atoms: O_5  and  C_22 
REMARK    4  A    between atoms: O_8  and  N_12 
REMARK    5  A    between atoms: CA_16  and  N_11 
REMARK       I    between atoms: N_11  and  C_23 
REMARK    6  A    between atoms: N_14  and  C_29 
REMARK    7  A    between atoms: CA_18  and  C_22 
REMARK    8  A    between atoms: C_19  and  C_21 
REMARK    9  A    between atoms: C_23  and  C_24 
REMARK   10  A    between atoms: C_24  and  C_25 
ROOT
ATOM      1  S   UNL d   1      39.437  -6.975  -5.490  0.00  0.00    -0.136 SA
ATOM      2  O   UNL d   1      35.673  -6.279  -7.075  0.00  0.00    -0.271 OA
ATOM      3  N   UNL d   1      36.958  -7.825  -5.917  0.00  0.00    -0.293 N 
ATOM      4  C   UNL d   1      38.310  -8.089  -6.389  0.00  0.00     0.187 C 
ATOM      5  CA  UNL d   1      37.796  -7.617  -7.799  0.00  0.00     0.211 C 
ATOM      6  C   UNL d   1      36.617  -7.005  -6.953  0.00  0.00     0.251 C 
ATOM      7  CA  UNL d   1      36.599  -7.796  -4.595  0.00  0.00     0.117 C 
ATOM      8  C   UNL d   1      37.535  -7.757  -3.604  0.00  0.00    -0.013 C 
ATOM      9  C   UNL d   1      39.029  -7.706  -3.872  0.00  0.00     0.115 C 
ENDROOT
BRANCH   5  10
ATOM     10  N   UNL d   1      38.761  -6.834  -8.625  0.00  0.00    -0.339 N 
ATOM     11  C   UNL d   1      38.892  -7.139  -9.992  0.00  0.00     0.275 C 
ATOM     12  O   UNL d   1      39.680  -6.530 -10.707  0.00  0.00    -0.266 OA
ATOM     13  H   UNL d   1      39.096  -5.919  -8.319  0.00  0.00     0.163 HD
BRANCH  11  14
ATOM     14  C   UNL d   1      38.054  -8.318 -10.542  0.00  0.00     0.180 C 
ATOM     15  N   UNL d   1      38.335  -9.589 -10.436  0.00  0.00    -0.126 NA
BRANCH  15  16
ATOM     16  O   UNL d   1      39.540  -9.909  -9.815  0.00  0.00    -0.261 OA
ATOM     17  C   UNL d   1      39.414 -11.246  -9.307  0.00  0.00     0.240 C 
ENDBRANCH  15  16
BRANCH  14  18
ATOM     18  C   UNL d   1      36.842  -8.069 -11.321  0.00  0.00     0.102 A 
ATOM     19  N   UNL d   1      35.720  -8.880 -11.204  0.00  0.00    -0.222 NA
ATOM     20  C   UNL d   1      34.713  -8.349 -11.852  0.00  0.00     0.164 A 
ATOM     21  S   UNL d   1      35.051  -6.902 -12.707  0.00  0.00    -0.062 SA
ATOM     22  C   UNL d   1      36.660  -6.962 -12.139  0.00  0.00     0.087 A 
BRANCH  20  23
ATOM     23  N   UNL d   1      33.484  -8.873 -11.826  0.00  0.00    -0.378 N 
ATOM     24  H   UNL d   1      32.770  -8.494 -12.431  0.00  0.00     0.158 HD
ATOM     25  H   UNL d   1      33.406  -9.862 -11.622  0.00  0.00     0.158 HD
ENDBRANCH  20  23
ENDBRANCH  14  18
ENDBRANCH  11  14
ENDBRANCH   5  10
BRANCH   7  26
ATOM     26  C   UNL d   1      35.129  -7.970  -4.261  0.00  0.00     0.194 C 
ATOM     27  OXT UNL d   1      34.591  -9.057  -4.097  0.00  0.00    -0.645 OA
BRANCH  26  28
ATOM     28  O   UNL d   1      34.396  -6.837  -4.298  0.00  0.00    -0.772 OA
ATOM     29  H   UNL d   1      33.665  -6.790  -3.644  0.00  0.00     0.167 HD
ENDBRANCH  26  28
ENDBRANCH   7  26
BRANCH   8  30
ATOM     30  C   UNL d   1      37.204  -7.667  -2.122  0.00  0.00     0.216 C 
BRANCH  30  31
ATOM     31  O   UNL d   1      37.338  -6.308  -1.671  0.00  0.00    -0.317 OA
BRANCH  31  32
ATOM     32  C   UNL d   1      37.751  -6.137  -0.389  0.00  0.00     0.255 C 
ATOM     33  O   UNL d   1      37.023  -6.073   0.591  0.00  0.00    -0.266 OA
ATOM     34  C   UNL d   1      39.246  -6.053  -0.339  0.00  0.00     0.126 C 
ENDBRANCH  31  32
ENDBRANCH  30  31
ENDBRANCH   8  30
TORSDOF 10
ENDMDL
MODEL 6
REMARK VINA RESULT:      -6.8      3.045      8.002
REMARK  10 active torsions:
REMARK  status: ('A' for Active; 'I' for Inactive)
REMARK    1  A    between atoms: O_4  and  C_21 
REMARK    2  A    between atoms: O_4  and  C_26 
REMARK    3  A    between atoms: O_5  and  C_22 
REMARK    4  A    between atoms: O_8  and  N_12 
REMARK    5  A    between atoms: CA_16  and  N_11 
REMARK       I    between atoms: N_11  and  C_23 
REMARK    6  A    between atoms: N_14  and  C_29 
REMARK    7  A    between atoms: CA_18  and  C_22 
REMARK    8  A    between atoms: C_19  and  C_21 
REMARK    9  A    between atoms: C_23  and  C_24 
REMARK   10  A    between atoms: C_24  and  C_25 
ROOT
ATOM      1  S   UNL d   1      39.992  -8.828  -6.879  0.00  0.00    -0.136 SA
ATOM      2  O   UNL d   1      36.223  -8.543  -5.183  0.00  0.00    -0.271 OA
ATOM      3  N   UNL d   1      37.987  -7.303  -6.038  0.00  0.00    -0.293 N 
ATOM      4  C   UNL d   1      39.340  -7.663  -5.638  0.00  0.00     0.187 C 
ATOM      5  CA  UNL d   1      38.683  -8.274  -4.347  0.00  0.00     0.211 C 
ATOM      6  C   UNL d   1      37.367  -8.190  -5.208  0.00  0.00     0.251 C 
ATOM      7  CA  UNL d   1      37.650  -6.859  -7.289  0.00  0.00     0.117 C 
ATOM      8  C   UNL d   1      38.514  -6.966  -8.339  0.00  0.00    -0.013 C 
ATOM      9  C   UNL d   1      39.886  -7.606  -8.226  0.00  0.00     0.115 C 
ENDROOT
BRANCH   5  10
ATOM     10  N   UNL d   1      39.293  -9.533  -3.826  0.00  0.00    -0.339 N 
ATOM     11  C   UNL d   1      40.042  -9.486  -2.636  0.00  0.00     0.275 C 
ATOM     12  O   UNL d   1      40.571 -10.492  -2.178  0.00  0.00    -0.266 OA
ATOM     13  H   UNL d   1      38.949 -10.447  -4.123  0.00  0.00     0.163 HD
BRANCH  11  14
ATOM     14  C   UNL d   1      40.228  -8.103  -1.967  0.00  0.00     0.180 C 
ATOM     15  N   UNL d   1      41.207  -7.263  -2.175  0.00  0.00    -0.126 NA
BRANCH  15  16
ATOM     16  O   UNL d   1      42.211  -7.682  -3.045  0.00  0.00    -0.261 OA
ATOM     17  C   UNL d   1      43.345  -8.042  -2.242  0.00  0.00     0.240 C 
ENDBRANCH  15  16
BRANCH  14  18
ATOM     18  C   UNL d   1      39.292  -7.640  -0.943  0.00  0.00     0.102 A 
ATOM     19  N   UNL d   1      39.290  -8.175   0.339  0.00  0.00    -0.222 NA
ATOM     20  C   UNL d   1      38.502  -7.475   1.116  0.00  0.00     0.164 A 
ATOM     21  S   UNL d   1      37.652  -6.192   0.362  0.00  0.00    -0.062 SA
ATOM     22  C   UNL d   1      38.424  -6.571  -1.114  0.00  0.00     0.087 A 
BRANCH  20  23
ATOM     23  N   UNL d   1      38.387  -7.713   2.426  0.00  0.00    -0.378 N 
ATOM     24  H   UNL d   1      39.029  -8.351   2.873  0.00  0.00     0.158 HD
ATOM     25  H   UNL d   1      38.045  -6.957   3.007  0.00  0.00     0.158 HD
ENDBRANCH  20  23
ENDBRANCH  14  18
ENDBRANCH  11  14
ENDBRANCH   5  10
BRANCH   7  26
ATOM     26  C   UNL d   1      36.345  -6.099  -7.439  0.00  0.00     0.194 C 
ATOM     27  OXT UNL d   1      36.235  -4.893  -7.271  0.00  0.00    -0.645 OA
BRANCH  26  28
ATOM     28  O   UNL d   1      35.252  -6.870  -7.629  0.00  0.00    -0.772 OA
ATOM     29  H   UNL d   1      35.036  -7.066  -8.566  0.00  0.00     0.167 HD
ENDBRANCH  26  28
ENDBRANCH   7  26
BRANCH   8  30
ATOM     30  C   UNL d   1      38.181  -6.545  -9.762  0.00  0.00     0.216 C 
BRANCH  30  31
ATOM     31  O   UNL d   1      37.362  -7.546 -10.391  0.00  0.00    -0.317 OA
BRANCH  31  32
ATOM     32  C   UNL d   1      36.229  -7.105 -10.996  0.00  0.00     0.255 C 
ATOM     33  O   UNL d   1      35.088  -7.311 -10.609  0.00  0.00    -0.266 OA
ATOM     34  C   UNL d   1      36.577  -6.304 -12.214  0.00  0.00     0.126 C 
ENDBRANCH  31  32
ENDBRANCH  30  31
ENDBRANCH   8  30
TORSDOF 10
ENDMDL
MODEL 7
REMARK VINA RESULT:      -6.7      3.065      8.539
REMARK  10 active torsions:
REMARK  status: ('A' for Active; 'I' for Inactive)
REMARK    1  A    between atoms: O_4  and  C_21 
REMARK    2  A    between atoms: O_4  and  C_26 
REMARK    3  A    between atoms: O_5  and  C_22 
REMARK    4  A    between atoms: O_8  and  N_12 
REMARK    5  A    between atoms: CA_16  and  N_11 
REMARK       I    between atoms: N_11  and  C_23 
REMARK    6  A    between atoms: N_14  and  C_29 
REMARK    7  A    between atoms: CA_18  and  C_22 
REMARK    8  A    between atoms: C_19  and  C_21 
REMARK    9  A    between atoms: C_23  and  C_24 
REMARK   10  A    between atoms: C_24  and  C_25 
ROOT
ATOM      1  S   UNL d   1      35.930  -6.091  -6.567  0.00  0.00    -0.136 SA
ATOM      2  O   UNL d   1      39.996  -6.751  -6.133  0.00  0.00    -0.271 OA
ATOM      3  N   UNL d   1      38.014  -7.710  -6.861  0.00  0.00    -0.293 N 
ATOM      4  C   UNL d   1      36.833  -7.576  -6.020  0.00  0.00     0.187 C 
ATOM      5  CA  UNL d   1      37.837  -7.411  -4.820  0.00  0.00     0.211 C 
ATOM      6  C   UNL d   1      38.872  -7.130  -5.973  0.00  0.00     0.251 C 
ATOM      7  CA  UNL d   1      37.986  -7.682  -8.231  0.00  0.00     0.117 C 
ATOM      8  C   UNL d   1      36.880  -7.266  -8.912  0.00  0.00    -0.013 C 
ATOM      9  C   UNL d   1      35.618  -6.773  -8.227  0.00  0.00     0.115 C 
ENDROOT
BRANCH   5  10
ATOM     10  N   UNL d   1      37.446  -6.438  -3.758  0.00  0.00    -0.339 N 
ATOM     11  C   UNL d   1      37.939  -6.618  -2.453  0.00  0.00     0.275 C 
ATOM     12  O   UNL d   1      37.634  -5.851  -1.547  0.00  0.00    -0.266 OA
ATOM     13  H   UNL d   1      37.091  -5.511  -3.998  0.00  0.00     0.163 HD
BRANCH  11  14
ATOM     14  C   UNL d   1      38.825  -7.859  -2.192  0.00  0.00     0.180 C 
ATOM     15  N   UNL d   1      38.413  -9.058  -1.878  0.00  0.00    -0.126 NA
BRANCH  15  16
ATOM     16  O   UNL d   1      37.040  -9.218  -1.706  0.00  0.00    -0.261 OA
ATOM     17  C   UNL d   1      36.540  -9.883  -2.875  0.00  0.00     0.240 C 
ENDBRANCH  15  16
BRANCH  14  18
ATOM     18  C   UNL d   1      40.283  -7.751  -2.222  0.00  0.00     0.102 A 
ATOM     19  N   UNL d   1      40.972  -6.931  -1.336  0.00  0.00    -0.222 NA
ATOM     20  C   UNL d   1      42.260  -7.148  -1.433  0.00  0.00     0.164 A 
ATOM     21  S   UNL d   1      42.743  -8.274  -2.633  0.00  0.00    -0.062 SA
ATOM     22  C   UNL d   1      41.101  -8.525  -3.033  0.00  0.00     0.087 A 
BRANCH  20  23
ATOM     23  N   UNL d   1      43.151  -6.562  -0.628  0.00  0.00    -0.378 N 
ATOM     24  H   UNL d   1      44.015  -6.213  -1.015  0.00  0.00     0.158 HD
ATOM     25  H   UNL d   1      42.790  -6.051   0.169  0.00  0.00     0.158 HD
ENDBRANCH  20  23
ENDBRANCH  14  18
ENDBRANCH  11  14
ENDBRANCH   5  10
BRANCH   7  26
ATOM     26  C   UNL d   1      39.168  -8.280  -8.971  0.00  0.00     0.194 C 
ATOM     27  OXT UNL d   1      39.262  -9.464  -9.264  0.00  0.00    -0.645 OA
BRANCH  26  28
ATOM     28  O   UNL d   1      40.207  -7.438  -9.165  0.00  0.00    -0.772 OA
ATOM     29  H   UNL d   1      40.963  -7.558  -8.551  0.00  0.00     0.167 HD
ENDBRANCH  26  28
ENDBRANCH   7  26
BRANCH   8  30
ATOM     30  C   UNL d   1      36.804  -7.159 -10.427  0.00  0.00     0.216 C 
BRANCH  30  31
ATOM     31  O   UNL d   1      36.236  -8.361 -10.976  0.00  0.00    -0.317 OA
BRANCH  31  32
ATOM     32  C   UNL d   1      34.925  -8.302 -11.327  0.00  0.00     0.255 C 
ATOM     33  O   UNL d   1      34.425  -7.478 -12.077  0.00  0.00    -0.266 OA
ATOM     34  C   UNL d   1      34.169  -9.417 -10.670  0.00  0.00     0.126 C 
ENDBRANCH  31  32
ENDBRANCH  30  31
ENDBRANCH   8  30
TORSDOF 10
ENDMDL
MODEL 8
REMARK VINA RESULT:      -6.7      3.374      7.223
REMARK  10 active torsions:
REMARK  status: ('A' for Active; 'I' for Inactive)
REMARK    1  A    between atoms: O_4  and  C_21 
REMARK    2  A    between atoms: O_4  and  C_26 
REMARK    3  A    between atoms: O_5  and  C_22 
REMARK    4  A    between atoms: O_8  and  N_12 
REMARK    5  A    between atoms: CA_16  and  N_11 
REMARK       I    between atoms: N_11  and  C_23 
REMARK    6  A    between atoms: N_14  and  C_29 
REMARK    7  A    between atoms: CA_18  and  C_22 
REMARK    8  A    between atoms: C_19  and  C_21 
REMARK    9  A    between atoms: C_23  and  C_24 
REMARK   10  A    between atoms: C_24  and  C_25 
ROOT
ATOM      1  S   UNL d   1      39.637  -7.194  -7.338  0.00  0.00    -0.136 SA
ATOM      2  O   UNL d   1      40.521  -7.438  -3.298  0.00  0.00    -0.271 OA
ATOM      3  N   UNL d   1      40.494  -8.640  -5.282  0.00  0.00    -0.293 N 
ATOM      4  C   UNL d   1      39.322  -8.529  -6.139  0.00  0.00     0.187 C 
ATOM      5  CA  UNL d   1      38.532  -8.156  -4.831  0.00  0.00     0.211 C 
ATOM      6  C   UNL d   1      39.977  -7.899  -4.260  0.00  0.00     0.251 C 
ATOM      7  CA  UNL d   1      41.777  -8.751  -5.749  0.00  0.00     0.117 C 
ATOM      8  C   UNL d   1      42.083  -8.506  -7.056  0.00  0.00    -0.013 C 
ATOM      9  C   UNL d   1      41.055  -8.062  -8.082  0.00  0.00     0.115 C 
ENDROOT
BRANCH   5  10
ATOM     10  N   UNL d   1      37.466  -7.122  -4.974  0.00  0.00    -0.339 N 
ATOM     11  C   UNL d   1      36.427  -7.077  -4.026  0.00  0.00     0.275 C 
ATOM     12  O   UNL d   1      35.524  -6.253  -4.111  0.00  0.00    -0.266 OA
ATOM     13  H   UNL d   1      37.617  -6.284  -5.538  0.00  0.00     0.163 HD
BRANCH  11  14
ATOM     14  C   UNL d   1      36.433  -8.152  -2.914  0.00  0.00     0.180 C 
ATOM     15  N   UNL d   1      35.801  -9.296  -2.932  0.00  0.00    -0.126 NA
BRANCH  15  16
ATOM     16  O   UNL d   1      34.998  -9.543  -4.043  0.00  0.00    -0.261 OA
ATOM     17  C   UNL d   1      33.649  -9.224  -3.670  0.00  0.00     0.240 C 
ENDBRANCH  15  16
BRANCH  14  18
ATOM     18  C   UNL d   1      37.143  -7.918  -1.657  0.00  0.00     0.102 A 
ATOM     19  N   UNL d   1      36.855  -6.825  -0.849  0.00  0.00    -0.222 NA
ATOM     20  C   UNL d   1      37.481  -6.936   0.296  0.00  0.00     0.164 A 
ATOM     21  S   UNL d   1      38.512  -8.296   0.458  0.00  0.00    -0.062 SA
ATOM     22  C   UNL d   1      38.061  -8.803  -1.109  0.00  0.00     0.087 A 
BRANCH  20  23
ATOM     23  N   UNL d   1      37.307  -6.069   1.298  0.00  0.00    -0.378 N 
ATOM     24  H   UNL d   1      36.496  -5.468   1.299  0.00  0.00     0.158 HD
ATOM     25  H   UNL d   1      37.651  -6.341   2.211  0.00  0.00     0.158 HD
ENDBRANCH  20  23
ENDBRANCH  14  18
ENDBRANCH  11  14
ENDBRANCH   5  10
BRANCH   7  26
ATOM     26  C   UNL d   1      42.824  -9.310  -4.804  0.00  0.00     0.194 C 
ATOM     27  OXT UNL d   1      43.586  -8.617  -4.144  0.00  0.00    -0.645 OA
BRANCH  26  28
ATOM     28  O   UNL d   1      42.973 -10.651  -4.844  0.00  0.00    -0.772 OA
ATOM     29  H   UNL d   1      42.213 -11.167  -4.496  0.00  0.00     0.167 HD
ENDBRANCH  26  28
ENDBRANCH   7  26
BRANCH   8  30
ATOM     30  C   UNL d   1      43.492  -8.557  -7.625  0.00  0.00     0.216 C 
BRANCH  30  31
ATOM     31  O   UNL d   1      44.103  -7.258  -7.539  0.00  0.00    -0.317 OA
BRANCH  31  32
ATOM     32  C   UNL d   1      45.456  -7.219  -7.653  0.00  0.00     0.255 C 
ATOM     33  O   UNL d   1      46.180  -6.324  -7.243  0.00  0.00    -0.266 OA
ATOM     34  C   UNL d   1      45.947  -8.453  -8.347  0.00  0.00     0.126 C 
ENDBRANCH  31  32
ENDBRANCH  30  31
ENDBRANCH   8  30
TORSDOF 10
ENDMDL
MODEL 9
REMARK VINA RESULT:      -6.6      3.711      8.691
REMARK  10 active torsions:
REMARK  status: ('A' for Active; 'I' for Inactive)
REMARK    1  A    between atoms: O_4  and  C_21 
REMARK    2  A    between atoms: O_4  and  C_26 
REMARK    3  A    between atoms: O_5  and  C_22 
REMARK    4  A    between atoms: O_8  and  N_12 
REMARK    5  A    between atoms: CA_16  and  N_11 
REMARK       I    between atoms: N_11  and  C_23 
REMARK    6  A    between atoms: N_14  and  C_29 
REMARK    7  A    between atoms: CA_18  and  C_22 
REMARK    8  A    between atoms: C_19  and  C_21 
REMARK    9  A    between atoms: C_23  and  C_24 
REMARK   10  A    between atoms: C_24  and  C_25 
ROOT
ATOM      1  S   UNL d   1      39.406  -8.850  -7.637  0.00  0.00    -0.136 SA
ATOM      2  O   UNL d   1      35.453  -7.895  -6.849  0.00  0.00    -0.271 OA
ATOM      3  N   UNL d   1      37.547  -6.990  -7.274  0.00  0.00    -0.293 N 
ATOM      4  C   UNL d   1      38.695  -7.551  -6.576  0.00  0.00     0.187 C 
ATOM      5  CA  UNL d   1      37.669  -8.000  -5.471  0.00  0.00     0.211 C 
ATOM      6  C   UNL d   1      36.615  -7.734  -6.610  0.00  0.00     0.251 C 
ATOM      7  CA  UNL d   1      37.580  -6.542  -8.568  0.00  0.00     0.117 C 
ATOM      8  C   UNL d   1      38.629  -6.826  -9.393  0.00  0.00    -0.013 C 
ATOM      9  C   UNL d   1      39.813  -7.676  -8.969  0.00  0.00     0.115 C 
ENDROOT
BRANCH   5  10
ATOM     10  N   UNL d   1      37.926  -9.322  -4.827  0.00  0.00    -0.339 N 
ATOM     11  C   UNL d   1      37.401  -9.571  -3.546  0.00  0.00     0.275 C 
ATOM     12  O   UNL d   1      37.598 -10.637  -2.974  0.00  0.00    -0.266 OA
ATOM     13  H   UNL d   1      38.202 -10.133  -5.383  0.00  0.00     0.163 HD
BRANCH  11  14
ATOM     14  C   UNL d   1      36.625  -8.421  -2.860  0.00  0.00     0.180 C 
ATOM     15  N   UNL d   1      35.370  -8.110  -3.044  0.00  0.00    -0.126 NA
BRANCH  15  16
ATOM     16  O   UNL d   1      34.679  -8.855  -3.997  0.00  0.00    -0.261 OA
ATOM     17  C   UNL d   1      33.347  -8.323  -4.067  0.00  0.00     0.240 C 
ENDBRANCH  15  16
BRANCH  14  18
ATOM     18  C   UNL d   1      37.307  -7.507  -1.945  0.00  0.00     0.102 A 
ATOM     19  N   UNL d   1      36.681  -7.013  -0.807  0.00  0.00    -0.222 NA
ATOM     20  C   UNL d   1      37.547  -6.376  -0.059  0.00  0.00     0.164 A 
ATOM     21  S   UNL d   1      39.135  -6.250  -0.692  0.00  0.00    -0.062 SA
ATOM     22  C   UNL d   1      38.644  -7.151  -2.057  0.00  0.00     0.087 A 
BRANCH  20  23
ATOM     23  N   UNL d   1      37.234  -5.881   1.142  0.00  0.00    -0.378 N 
ATOM     24  H   UNL d   1      36.399  -6.203   1.609  0.00  0.00     0.158 HD
ATOM     25  H   UNL d   1      38.000  -5.616   1.749  0.00  0.00     0.158 HD
ENDBRANCH  20  23
ENDBRANCH  14  18
ENDBRANCH  11  14
ENDBRANCH   5  10
BRANCH   7  26
ATOM     26  C   UNL d   1      36.488  -5.585  -9.011  0.00  0.00     0.194 C 
ATOM     27  OXT UNL d   1      36.299  -4.487  -8.507  0.00  0.00    -0.645 OA
BRANCH  26  28
ATOM     28  O   UNL d   1      35.621  -6.086  -9.917  0.00  0.00    -0.772 OA
ATOM     29  H   UNL d   1      34.994  -6.757  -9.569  0.00  0.00     0.167 HD
ENDBRANCH  26  28
ENDBRANCH   7  26
BRANCH   8  30
ATOM     30  C   UNL d   1      38.702  -6.406 -10.853  0.00  0.00     0.216 C 
BRANCH  30  31
ATOM     31  O   UNL d   1      38.417  -7.533 -11.701  0.00  0.00    -0.317 OA
BRANCH  31  32
ATOM     32  C   UNL d   1      37.496  -7.334 -12.679  0.00  0.00     0.255 C 
ATOM     33  O   UNL d   1      36.857  -8.209 -13.243  0.00  0.00    -0.266 OA
ATOM     34  C   UNL d   1      37.358  -5.869 -12.962  0.00  0.00     0.126 C 
ENDBRANCH  31  32
ENDBRANCH  30  31
ENDBRANCH   8  30
TORSDOF 10
ENDMDL
