MODEL 1
REMARK VINA RESULT:      -7.5      0.000      0.000
REMARK  10 active torsions:
REMARK  status: ('A' for Active; 'I' for Inactive)
REMARK    1  A    between atoms: O_4  and  C_21 
REMARK    2  A    between atoms: O_4  and  C_26 
REMARK    3  A    between atoms: O_5  and  C_22 
REMARK    4  A    between atoms: O_8  and  N_12 
REMARK    5  A    between atoms: CA_16  and  N_11 
REMARK       I    between atoms: N_11  and  C_23 
REMARK    6  A    between atoms: N_14  and  C_29 
REMARK    7  A    between atoms: CA_18  and  C_22 
REMARK    8  A    between atoms: C_19  and  C_21 
REMARK    9  A    between atoms: C_23  and  C_24 
REMARK   10  A    between atoms: C_24  and  C_25 
ROOT
ATOM      1  S   UNL d   1      38.618  -9.716  -1.949  0.00  0.00    -0.136 SA
ATOM      2  O   UNL d   1      41.891  -7.325  -2.825  0.00  0.00    -0.271 OA
ATOM      3  N   UNL d   1      39.665  -7.272  -2.116  0.00  0.00    -0.293 N 
ATOM      4  C   UNL d   1      38.714  -8.126  -2.827  0.00  0.00     0.187 C 
ATOM      5  CA  UNL d   1      39.704  -8.032  -4.049  0.00  0.00     0.211 C 
ATOM      6  C   UNL d   1      40.702  -7.545  -2.968  0.00  0.00     0.251 C 
ATOM      7  CA  UNL d   1      39.657  -7.059  -0.759  0.00  0.00     0.117 C 
ATOM      8  C   UNL d   1      38.881  -7.808   0.067  0.00  0.00    -0.013 C 
ATOM      9  C   UNL d   1      38.011  -8.954  -0.411  0.00  0.00     0.115 C 
ENDROOT
BRANCH   5  10
ATOM     10  N   UNL d   1      39.883  -9.266  -4.894  0.00  0.00    -0.339 N 
ATOM     11  C   UNL d   1      39.149  -9.305  -6.077  0.00  0.00     0.275 C 
ATOM     12  O   UNL d   1      39.228 -10.285  -6.820  0.00  0.00    -0.266 OA
ATOM     13  H   UNL d   1      40.620  -9.951  -4.745  0.00  0.00     0.163 HD
BRANCH  11  14
ATOM     14  C   UNL d   1      38.249  -8.152  -6.515  0.00  0.00     0.180 C 
ATOM     15  N   UNL d   1      38.543  -7.131  -7.266  0.00  0.00    -0.126 NA
BRANCH  15  16
ATOM     16  O   UNL d   1      39.836  -7.064  -7.777  0.00  0.00    -0.261 OA
ATOM     17  C   UNL d   1      39.750  -7.538  -9.136  0.00  0.00     0.240 C 
ENDBRANCH  15  16
BRANCH  14  18
ATOM     18  C   UNL d   1      36.899  -8.095  -5.936  0.00  0.00     0.102 A 
ATOM     19  N   UNL d   1      36.479  -9.026  -4.993  0.00  0.00    -0.222 NA
ATOM     20  C   UNL d   1      35.309  -8.689  -4.514  0.00  0.00     0.164 A 
ATOM     21  S   UNL d   1      34.586  -7.308  -5.228  0.00  0.00    -0.062 SA
ATOM     22  C   UNL d   1      35.967  -7.110  -6.219  0.00  0.00     0.087 A 
BRANCH  20  23
ATOM     23  N   UNL d   1      34.705  -9.365  -3.529  0.00  0.00    -0.378 N 
ATOM     24  H   UNL d   1      33.785  -9.755  -3.681  0.00  0.00     0.158 HD
ATOM     25  H   UNL d   1      35.301  -9.871  -2.886  0.00  0.00     0.158 HD
ENDBRANCH  20  23
ENDBRANCH  14  18
ENDBRANCH  11  14
ENDBRANCH   5  10
BRANCH   7  26
ATOM     26  C   UNL d   1      40.421  -5.865  -0.224  0.00  0.00     0.194 C 
ATOM     27  OXT UNL d   1      39.884  -4.828   0.136  0.00  0.00    -0.645 OA
BRANCH  26  28
ATOM     28  O   UNL d   1      41.765  -5.962  -0.285  0.00  0.00    -0.772 OA
ATOM     29  H   UNL d   1      42.155  -6.748   0.154  0.00  0.00     0.167 HD
ENDBRANCH  26  28
ENDBRANCH   7  26
BRANCH   8  30
ATOM     30  C   UNL d   1      38.836  -7.639   1.579  0.00  0.00     0.216 C 
BRANCH  30  31
ATOM     31  O   UNL d   1      37.589  -7.051   1.976  0.00  0.00    -0.317 OA
BRANCH  31  32
ATOM     32  C   UNL d   1      37.004  -7.570   3.087  0.00  0.00     0.255 C 
ATOM     33  O   UNL d   1      36.297  -6.954   3.872  0.00  0.00    -0.266 OA
ATOM     34  C   UNL d   1      37.339  -9.025   3.210  0.00  0.00     0.126 C 
ENDBRANCH  31  32
ENDBRANCH  30  31
ENDBRANCH   8  30
TORSDOF 10
ENDMDL
MODEL 2
REMARK VINA RESULT:      -7.3      1.987      2.480
REMARK  10 active torsions:
REMARK  status: ('A' for Active; 'I' for Inactive)
REMARK    1  A    between atoms: O_4  and  C_21 
REMARK    2  A    between atoms: O_4  and  C_26 
REMARK    3  A    between atoms: O_5  and  C_22 
REMARK    4  A    between atoms: O_8  and  N_12 
REMARK    5  A    between atoms: CA_16  and  N_11 
REMARK       I    between atoms: N_11  and  C_23 
REMARK    6  A    between atoms: N_14  and  C_29 
REMARK    7  A    between atoms: CA_18  and  C_22 
REMARK    8  A    between atoms: C_19  and  C_21 
REMARK    9  A    between atoms: C_23  and  C_24 
REMARK   10  A    between atoms: C_24  and  C_25 
ROOT
ATOM      1  S   UNL d   1      37.479  -8.546  -2.698  0.00  0.00    -0.136 SA
ATOM      2  O   UNL d   1      41.607  -8.512  -2.313  0.00  0.00    -0.271 OA
ATOM      3  N   UNL d   1      39.725  -7.135  -2.456  0.00  0.00    -0.293 N 
ATOM      4  C   UNL d   1      38.725  -7.469  -3.469  0.00  0.00     0.187 C 
ATOM      5  CA  UNL d   1      39.902  -8.167  -4.250  0.00  0.00     0.211 C 
ATOM      6  C   UNL d   1      40.617  -8.085  -2.877  0.00  0.00     0.251 C 
ATOM      7  CA  UNL d   1      39.433  -6.684  -1.192  0.00  0.00     0.117 C 
ATOM      8  C   UNL d   1      38.164  -6.717  -0.708  0.00  0.00    -0.013 C 
ATOM      9  C   UNL d   1      36.988  -7.288  -1.478  0.00  0.00     0.115 C 
ENDROOT
BRANCH   5  10
ATOM     10  N   UNL d   1      39.588  -9.445  -4.983  0.00  0.00    -0.339 N 
ATOM     11  C   UNL d   1      39.639  -9.377  -6.373  0.00  0.00     0.275 C 
ATOM     12  O   UNL d   1      39.382 -10.375  -7.049  0.00  0.00    -0.266 OA
ATOM     13  H   UNL d   1      39.529 -10.355  -4.533  0.00  0.00     0.163 HD
BRANCH  11  14
ATOM     14  C   UNL d   1      40.030  -8.100  -7.113  0.00  0.00     0.180 C 
ATOM     15  N   UNL d   1      41.201  -7.538  -7.201  0.00  0.00    -0.126 NA
BRANCH  15  16
ATOM     16  O   UNL d   1      42.266  -8.176  -6.572  0.00  0.00    -0.261 OA
ATOM     17  C   UNL d   1      43.168  -8.572  -7.624  0.00  0.00     0.240 C 
ENDBRANCH  15  16
BRANCH  14  18
ATOM     18  C   UNL d   1      38.946  -7.313  -7.716  0.00  0.00     0.102 A 
ATOM     19  N   UNL d   1      37.985  -6.686  -6.930  0.00  0.00    -0.222 NA
ATOM     20  C   UNL d   1      37.219  -5.928  -7.670  0.00  0.00     0.164 A 
ATOM     21  S   UNL d   1      37.520  -5.992  -9.357  0.00  0.00    -0.062 SA
ATOM     22  C   UNL d   1      38.812  -7.078  -9.075  0.00  0.00     0.087 A 
BRANCH  20  23
ATOM     23  N   UNL d   1      36.261  -5.144  -7.160  0.00  0.00    -0.378 N 
ATOM     24  H   UNL d   1      35.914  -5.320  -6.227  0.00  0.00     0.158 HD
ATOM     25  H   UNL d   1      36.248  -4.178  -7.463  0.00  0.00     0.158 HD
ENDBRANCH  20  23
ENDBRANCH  14  18
ENDBRANCH  11  14
ENDBRANCH   5  10
BRANCH   7  26
ATOM     26  C   UNL d   1      40.537  -6.006  -0.407  0.00  0.00     0.194 C 
ATOM     27  OXT UNL d   1      40.585  -4.800  -0.215  0.00  0.00    -0.645 OA
BRANCH  26  28
ATOM     28  O   UNL d   1      41.556  -6.805  -0.031  0.00  0.00    -0.772 OA
ATOM     29  H   UNL d   1      41.762  -6.808   0.928  0.00  0.00     0.167 HD
ENDBRANCH  26  28
ENDBRANCH   7  26
BRANCH   8  30
ATOM     30  C   UNL d   1      37.771  -6.251   0.687  0.00  0.00     0.216 C 
BRANCH  30  31
ATOM     31  O   UNL d   1      37.224  -7.343   1.441  0.00  0.00    -0.317 OA
BRANCH  31  32
ATOM     32  C   UNL d   1      38.005  -7.841   2.433  0.00  0.00     0.255 C 
ATOM     33  O   UNL d   1      39.186  -7.578   2.608  0.00  0.00    -0.266 OA
ATOM     34  C   UNL d   1      37.204  -8.761   3.304  0.00  0.00     0.126 C 
ENDBRANCH  31  32
ENDBRANCH  30  31
ENDBRANCH   8  30
TORSDOF 10
ENDMDL
MODEL 3
REMARK VINA RESULT:      -7.2      4.080      7.692
REMARK  10 active torsions:
REMARK  status: ('A' for Active; 'I' for Inactive)
REMARK    1  A    between atoms: O_4  and  C_21 
REMARK    2  A    between atoms: O_4  and  C_26 
REMARK    3  A    between atoms: O_5  and  C_22 
REMARK    4  A    between atoms: O_8  and  N_12 
REMARK    5  A    between atoms: CA_16  and  N_11 
REMARK       I    between atoms: N_11  and  C_23 
REMARK    6  A    between atoms: N_14  and  C_29 
REMARK    7  A    between atoms: CA_18  and  C_22 
REMARK    8  A    between atoms: C_19  and  C_21 
REMARK    9  A    between atoms: C_23  and  C_24 
REMARK   10  A    between atoms: C_24  and  C_25 
ROOT
ATOM      1  S   UNL d   1      39.177  -6.701  -0.516  0.00  0.00    -0.136 SA
ATOM      2  O   UNL d   1      41.275  -7.325  -4.037  0.00  0.00    -0.271 OA
ATOM      3  N   UNL d   1      40.001  -8.397  -2.397  0.00  0.00    -0.293 N 
ATOM      4  C   UNL d   1      40.283  -8.060  -1.002  0.00  0.00     0.187 C 
ATOM      5  CA  UNL d   1      41.729  -7.676  -1.497  0.00  0.00     0.211 C 
ATOM      6  C   UNL d   1      41.051  -7.669  -2.892  0.00  0.00     0.251 C 
ATOM      7  CA  UNL d   1      38.744  -8.609  -2.909  0.00  0.00     0.117 C 
ATOM      8  C   UNL d   1      37.631  -8.307  -2.190  0.00  0.00    -0.013 C 
ATOM      9  C   UNL d   1      37.669  -7.677  -0.812  0.00  0.00     0.115 C 
ENDROOT
BRANCH   5  10
ATOM     10  N   UNL d   1      42.389  -6.484  -0.854  0.00  0.00    -0.339 N 
ATOM     11  C   UNL d   1      43.717  -6.658  -0.471  0.00  0.00     0.275 C 
ATOM     12  O   UNL d   1      44.326  -5.736   0.074  0.00  0.00    -0.266 OA
ATOM     13  H   UNL d   1      41.991  -5.548  -0.858  0.00  0.00     0.163 HD
BRANCH  11  14
ATOM     14  C   UNL d   1      44.474  -7.959  -0.724  0.00  0.00     0.180 C 
ATOM     15  N   UNL d   1      44.771  -8.904   0.120  0.00  0.00    -0.126 NA
BRANCH  15  16
ATOM     16  O   UNL d   1      44.330  -8.752   1.432  0.00  0.00    -0.261 OA
ATOM     17  C   UNL d   1      45.443  -9.122   2.270  0.00  0.00     0.240 C 
ENDBRANCH  15  16
BRANCH  14  18
ATOM     18  C   UNL d   1      45.062  -8.147  -2.057  0.00  0.00     0.102 A 
ATOM     19  N   UNL d   1      46.043  -7.288  -2.541  0.00  0.00    -0.222 NA
ATOM     20  C   UNL d   1      46.519  -7.736  -3.674  0.00  0.00     0.164 A 
ATOM     21  S   UNL d   1      45.759  -9.144  -4.291  0.00  0.00    -0.062 SA
ATOM     22  C   UNL d   1      44.750  -9.192  -2.910  0.00  0.00     0.087 A 
BRANCH  20  23
ATOM     23  N   UNL d   1      47.533  -7.149  -4.320  0.00  0.00    -0.378 N 
ATOM     24  H   UNL d   1      47.965  -7.617  -5.105  0.00  0.00     0.158 HD
ATOM     25  H   UNL d   1      47.533  -6.137  -4.353  0.00  0.00     0.158 HD
ENDBRANCH  20  23
ENDBRANCH  14  18
ENDBRANCH  11  14
ENDBRANCH   5  10
BRANCH   7  26
ATOM     26  C   UNL d   1      38.631  -9.330  -4.237  0.00  0.00     0.194 C 
ATOM     27  OXT UNL d   1      38.594 -10.547  -4.341  0.00  0.00    -0.645 OA
BRANCH  26  28
ATOM     28  O   UNL d   1      38.702  -8.546  -5.331  0.00  0.00    -0.772 OA
ATOM     29  H   UNL d   1      37.844  -8.211  -5.670  0.00  0.00     0.167 HD
ENDBRANCH  26  28
ENDBRANCH   7  26
BRANCH   8  30
ATOM     30  C   UNL d   1      36.210  -8.500  -2.701  0.00  0.00     0.216 C 
BRANCH  30  31
ATOM     31  O   UNL d   1      35.867  -7.454  -3.622  0.00  0.00    -0.317 OA
BRANCH  31  32
ATOM     32  C   UNL d   1      34.674  -7.580  -4.259  0.00  0.00     0.255 C 
ATOM     33  O   UNL d   1      33.577  -7.592  -3.718  0.00  0.00    -0.266 OA
ATOM     34  C   UNL d   1      34.890  -7.689  -5.737  0.00  0.00     0.126 C 
ENDBRANCH  31  32
ENDBRANCH  30  31
ENDBRANCH   8  30
TORSDOF 10
ENDMDL
MODEL 4
REMARK VINA RESULT:      -7.1      3.795      6.336
REMARK  10 active torsions:
REMARK  status: ('A' for Active; 'I' for Inactive)
REMARK    1  A    between atoms: O_4  and  C_21 
REMARK    2  A    between atoms: O_4  and  C_26 
REMARK    3  A    between atoms: O_5  and  C_22 
REMARK    4  A    between atoms: O_8  and  N_12 
REMARK    5  A    between atoms: CA_16  and  N_11 
REMARK       I    between atoms: N_11  and  C_23 
REMARK    6  A    between atoms: N_14  and  C_29 
REMARK    7  A    between atoms: CA_18  and  C_22 
REMARK    8  A    between atoms: C_19  and  C_21 
REMARK    9  A    between atoms: C_23  and  C_24 
REMARK   10  A    between atoms: C_24  and  C_25 
ROOT
ATOM      1  S   UNL d   1      38.486 -10.958  -3.760  0.00  0.00    -0.136 SA
ATOM      2  O   UNL d   1      40.018  -8.621  -0.696  0.00  0.00    -0.271 OA
ATOM      3  N   UNL d   1      38.996  -8.528  -2.796  0.00  0.00    -0.293 N 
ATOM      4  C   UNL d   1      39.490  -9.443  -3.824  0.00  0.00     0.187 C 
ATOM      5  CA  UNL d   1      40.848  -9.439  -3.024  0.00  0.00     0.211 C 
ATOM      6  C   UNL d   1      39.967  -8.860  -1.888  0.00  0.00     0.251 C 
ATOM      7  CA  UNL d   1      37.674  -8.207  -2.609  0.00  0.00     0.117 C 
ATOM      8  C   UNL d   1      36.686  -8.893  -3.242  0.00  0.00    -0.013 C 
ATOM      9  C   UNL d   1      36.941 -10.080  -4.150  0.00  0.00     0.115 C 
ENDROOT
BRANCH   5  10
ATOM     10  N   UNL d   1      41.612 -10.736  -2.947  0.00  0.00    -0.339 N 
ATOM     11  C   UNL d   1      42.928 -10.694  -3.401  0.00  0.00     0.275 C 
ATOM     12  O   UNL d   1      43.618 -11.714  -3.384  0.00  0.00    -0.266 OA
ATOM     13  H   UNL d   1      41.290 -11.550  -2.432  0.00  0.00     0.163 HD
BRANCH  11  14
ATOM     14  C   UNL d   1      43.576  -9.407  -3.906  0.00  0.00     0.180 C 
ATOM     15  N   UNL d   1      43.596  -8.927  -5.115  0.00  0.00    -0.126 NA
BRANCH  15  16
ATOM     16  O   UNL d   1      42.922  -9.645  -6.100  0.00  0.00    -0.261 OA
ATOM     17  C   UNL d   1      41.907  -8.760  -6.611  0.00  0.00     0.240 C 
ENDBRANCH  15  16
BRANCH  14  18
ATOM     18  C   UNL d   1      44.392  -8.645  -2.951  0.00  0.00     0.102 A 
ATOM     19  N   UNL d   1      43.817  -7.716  -2.090  0.00  0.00    -0.222 NA
ATOM     20  C   UNL d   1      44.706  -7.277  -1.237  0.00  0.00     0.164 A 
ATOM     21  S   UNL d   1      46.303  -7.856  -1.469  0.00  0.00    -0.062 SA
ATOM     22  C   UNL d   1      45.756  -8.812  -2.779  0.00  0.00     0.087 A 
BRANCH  20  23
ATOM     23  N   UNL d   1      44.405  -6.435  -0.242  0.00  0.00    -0.378 N 
ATOM     24  H   UNL d   1      43.808  -5.639  -0.422  0.00  0.00     0.158 HD
ATOM     25  H   UNL d   1      44.353  -6.825   0.691  0.00  0.00     0.158 HD
ENDBRANCH  20  23
ENDBRANCH  14  18
ENDBRANCH  11  14
ENDBRANCH   5  10
BRANCH   7  26
ATOM     26  C   UNL d   1      37.351  -6.969  -1.798  0.00  0.00     0.194 C 
ATOM     27  OXT UNL d   1      36.992  -7.003  -0.630  0.00  0.00    -0.645 OA
BRANCH  26  28
ATOM     28  O   UNL d   1      37.359  -5.808  -2.483  0.00  0.00    -0.772 OA
ATOM     29  H   UNL d   1      36.828  -5.081  -2.094  0.00  0.00     0.167 HD
ENDBRANCH  26  28
ENDBRANCH   7  26
BRANCH   8  30
ATOM     30  C   UNL d   1      35.202  -8.604  -3.069  0.00  0.00     0.216 C 
BRANCH  30  31
ATOM     31  O   UNL d   1      34.824  -7.461  -3.851  0.00  0.00    -0.317 OA
BRANCH  31  32
ATOM     32  C   UNL d   1      33.560  -7.463  -4.348  0.00  0.00     0.255 C 
ATOM     33  O   UNL d   1      32.659  -6.712  -4.001  0.00  0.00    -0.266 OA
ATOM     34  C   UNL d   1      33.425  -8.517  -5.403  0.00  0.00     0.126 C 
ENDBRANCH  31  32
ENDBRANCH  30  31
ENDBRANCH   8  30
TORSDOF 10
ENDMDL
MODEL 5
REMARK VINA RESULT:      -7.0      2.736      8.404
REMARK  10 active torsions:
REMARK  status: ('A' for Active; 'I' for Inactive)
REMARK    1  A    between atoms: O_4  and  C_21 
REMARK    2  A    between atoms: O_4  and  C_26 
REMARK    3  A    between atoms: O_5  and  C_22 
REMARK    4  A    between atoms: O_8  and  N_12 
REMARK    5  A    between atoms: CA_16  and  N_11 
REMARK       I    between atoms: N_11  and  C_23 
REMARK    6  A    between atoms: N_14  and  C_29 
REMARK    7  A    between atoms: CA_18  and  C_22 
REMARK    8  A    between atoms: C_19  and  C_21 
REMARK    9  A    between atoms: C_23  and  C_24 
REMARK   10  A    between atoms: C_24  and  C_25 
ROOT
ATOM      1  S   UNL d   1      36.005  -6.311  -5.048  0.00  0.00    -0.136 SA
ATOM      2  O   UNL d   1      40.113  -6.432  -5.604  0.00  0.00    -0.271 OA
ATOM      3  N   UNL d   1      38.150  -7.678  -5.838  0.00  0.00    -0.293 N 
ATOM      4  C   UNL d   1      37.198  -7.646  -4.729  0.00  0.00     0.187 C 
ATOM      5  CA  UNL d   1      38.436  -7.309  -3.815  0.00  0.00     0.211 C 
ATOM      6  C   UNL d   1      39.111  -6.969  -5.168  0.00  0.00     0.251 C 
ATOM      7  CA  UNL d   1      37.799  -7.670  -7.166  0.00  0.00     0.117 C 
ATOM      8  C   UNL d   1      36.524  -7.412  -7.556  0.00  0.00    -0.013 C 
ATOM      9  C   UNL d   1      35.406  -7.067  -6.591  0.00  0.00     0.115 C 
ENDROOT
BRANCH   5  10
ATOM     10  N   UNL d   1      38.222  -6.331  -2.689  0.00  0.00    -0.339 N 
ATOM     11  C   UNL d   1      38.844  -6.646  -1.483  0.00  0.00     0.275 C 
ATOM     12  O   UNL d   1      38.708  -5.905  -0.508  0.00  0.00    -0.266 OA
ATOM     13  H   UNL d   1      37.823  -5.404  -2.815  0.00  0.00     0.163 HD
BRANCH  11  14
ATOM     14  C   UNL d   1      39.724  -7.882  -1.319  0.00  0.00     0.180 C 
ATOM     15  N   UNL d   1      39.385  -9.074  -0.919  0.00  0.00    -0.126 NA
BRANCH  15  16
ATOM     16  O   UNL d   1      38.043  -9.291  -0.619  0.00  0.00    -0.261 OA
ATOM     17  C   UNL d   1      37.520 -10.088  -1.700  0.00  0.00     0.240 C 
ENDBRANCH  15  16
BRANCH  14  18
ATOM     18  C   UNL d   1      41.169  -7.710  -1.517  0.00  0.00     0.102 A 
ATOM     19  N   UNL d   1      41.921  -6.900  -0.674  0.00  0.00    -0.222 NA
ATOM     20  C   UNL d   1      43.195  -7.018  -0.948  0.00  0.00     0.164 A 
ATOM     21  S   UNL d   1      43.573  -8.014  -2.291  0.00  0.00    -0.062 SA
ATOM     22  C   UNL d   1      41.909  -8.359  -2.491  0.00  0.00     0.087 A 
BRANCH  20  23
ATOM     23  N   UNL d   1      44.152  -6.412  -0.235  0.00  0.00    -0.378 N 
ATOM     24  H   UNL d   1      44.999  -6.106  -0.693  0.00  0.00     0.158 HD
ATOM     25  H   UNL d   1      43.853  -5.861   0.560  0.00  0.00     0.158 HD
ENDBRANCH  20  23
ENDBRANCH  14  18
ENDBRANCH  11  14
ENDBRANCH   5  10
BRANCH   7  26
ATOM     26  C   UNL d   1      38.839  -8.107  -8.178  0.00  0.00     0.194 C 
ATOM     27  OXT UNL d   1      39.096  -9.278  -8.417  0.00  0.00    -0.645 OA
BRANCH  26  28
ATOM     28  O   UNL d   1      39.573  -7.115  -8.721  0.00  0.00    -0.772 OA
ATOM     29  H   UNL d   1      39.171  -6.220  -8.685  0.00  0.00     0.167 HD
ENDBRANCH  26  28
ENDBRANCH   7  26
BRANCH   8  30
ATOM     30  C   UNL d   1      36.069  -7.369  -9.009  0.00  0.00     0.216 C 
BRANCH  30  31
ATOM     31  O   UNL d   1      36.561  -6.182  -9.649  0.00  0.00    -0.317 OA
BRANCH  31  32
ATOM     32  C   UNL d   1      36.957  -6.315 -10.941  0.00  0.00     0.255 C 
ATOM     33  O   UNL d   1      38.114  -6.432 -11.320  0.00  0.00    -0.266 OA
ATOM     34  C   UNL d   1      35.764  -6.312 -11.847  0.00  0.00     0.126 C 
ENDBRANCH  31  32
ENDBRANCH  30  31
ENDBRANCH   8  30
TORSDOF 10
ENDMDL
MODEL 6
REMARK VINA RESULT:      -6.9      3.634      8.714
REMARK  10 active torsions:
REMARK  status: ('A' for Active; 'I' for Inactive)
REMARK    1  A    between atoms: O_4  and  C_21 
REMARK    2  A    between atoms: O_4  and  C_26 
REMARK    3  A    between atoms: O_5  and  C_22 
REMARK    4  A    between atoms: O_8  and  N_12 
REMARK    5  A    between atoms: CA_16  and  N_11 
REMARK       I    between atoms: N_11  and  C_23 
REMARK    6  A    between atoms: N_14  and  C_29 
REMARK    7  A    between atoms: CA_18  and  C_22 
REMARK    8  A    between atoms: C_19  and  C_21 
REMARK    9  A    between atoms: C_23  and  C_24 
REMARK   10  A    between atoms: C_24  and  C_25 
ROOT
ATOM      1  S   UNL d   1      39.403  -8.904  -7.663  0.00  0.00    -0.136 SA
ATOM      2  O   UNL d   1      35.436  -7.861  -7.048  0.00  0.00    -0.271 OA
ATOM      3  N   UNL d   1      37.571  -6.985  -7.421  0.00  0.00    -0.293 N 
ATOM      4  C   UNL d   1      38.677  -7.569  -6.663  0.00  0.00     0.187 C 
ATOM      5  CA  UNL d   1      37.593  -7.972  -5.593  0.00  0.00     0.211 C 
ATOM      6  C   UNL d   1      36.607  -7.696  -6.757  0.00  0.00     0.251 C 
ATOM      7  CA  UNL d   1      37.646  -6.598  -8.736  0.00  0.00     0.117 C 
ATOM      8  C   UNL d   1      38.714  -6.931  -9.508  0.00  0.00    -0.013 C 
ATOM      9  C   UNL d   1      39.869  -7.782  -9.019  0.00  0.00     0.115 C 
ENDROOT
BRANCH   5  10
ATOM     10  N   UNL d   1      37.760  -9.300  -4.901  0.00  0.00    -0.339 N 
ATOM     11  C   UNL d   1      37.254  -9.379  -3.606  0.00  0.00     0.275 C 
ATOM     12  O   UNL d   1      37.361 -10.426  -2.966  0.00  0.00    -0.266 OA
ATOM     13  H   UNL d   1      38.041 -10.153  -5.378  0.00  0.00     0.163 HD
BRANCH  11  14
ATOM     14  C   UNL d   1      36.534  -8.210  -2.940  0.00  0.00     0.180 C 
ATOM     15  N   UNL d   1      35.345  -7.741  -3.184  0.00  0.00    -0.126 NA
BRANCH  15  16
ATOM     16  O   UNL d   1      34.590  -8.387  -4.160  0.00  0.00    -0.261 OA
ATOM     17  C   UNL d   1      33.673  -9.242  -3.449  0.00  0.00     0.240 C 
ENDBRANCH  15  16
BRANCH  14  18
ATOM     18  C   UNL d   1      37.300  -7.412  -1.973  0.00  0.00     0.102 A 
ATOM     19  N   UNL d   1      36.719  -6.951  -0.797  0.00  0.00    -0.222 NA
ATOM     20  C   UNL d   1      37.624  -6.400  -0.030  0.00  0.00     0.164 A 
ATOM     21  S   UNL d   1      39.199  -6.296  -0.699  0.00  0.00    -0.062 SA
ATOM     22  C   UNL d   1      38.643  -7.100  -2.104  0.00  0.00     0.087 A 
BRANCH  20  23
ATOM     23  N   UNL d   1      37.356  -5.945   1.200  0.00  0.00    -0.378 N 
ATOM     24  H   UNL d   1      37.870  -6.308   1.992  0.00  0.00     0.158 HD
ATOM     25  H   UNL d   1      37.044  -4.985   1.278  0.00  0.00     0.158 HD
ENDBRANCH  20  23
ENDBRANCH  14  18
ENDBRANCH  11  14
ENDBRANCH   5  10
BRANCH   7  26
ATOM     26  C   UNL d   1      36.580  -5.659  -9.262  0.00  0.00     0.194 C 
ATOM     27  OXT UNL d   1      36.404  -4.529  -8.830  0.00  0.00    -0.645 OA
BRANCH  26  28
ATOM     28  O   UNL d   1      35.732  -6.192 -10.166  0.00  0.00    -0.772 OA
ATOM     29  H   UNL d   1      35.445  -5.590 -10.885  0.00  0.00     0.167 HD
ENDBRANCH  26  28
ENDBRANCH   7  26
BRANCH   8  30
ATOM     30  C   UNL d   1      38.855  -6.551 -10.976  0.00  0.00     0.216 C 
BRANCH  30  31
ATOM     31  O   UNL d   1      39.261  -5.180 -11.097  0.00  0.00    -0.317 OA
BRANCH  31  32
ATOM     32  C   UNL d   1      39.191  -4.638 -12.341  0.00  0.00     0.255 C 
ATOM     33  O   UNL d   1      39.990  -3.845 -12.816  0.00  0.00    -0.266 OA
ATOM     34  C   UNL d   1      37.990  -5.167 -13.064  0.00  0.00     0.126 C 
ENDBRANCH  31  32
ENDBRANCH  30  31
ENDBRANCH   8  30
TORSDOF 10
ENDMDL
MODEL 7
REMARK VINA RESULT:      -6.8      3.512      7.300
REMARK  10 active torsions:
REMARK  status: ('A' for Active; 'I' for Inactive)
REMARK    1  A    between atoms: O_4  and  C_21 
REMARK    2  A    between atoms: O_4  and  C_26 
REMARK    3  A    between atoms: O_5  and  C_22 
REMARK    4  A    between atoms: O_8  and  N_12 
REMARK    5  A    between atoms: CA_16  and  N_11 
REMARK       I    between atoms: N_11  and  C_23 
REMARK    6  A    between atoms: N_14  and  C_29 
REMARK    7  A    between atoms: CA_18  and  C_22 
REMARK    8  A    between atoms: C_19  and  C_21 
REMARK    9  A    between atoms: C_23  and  C_24 
REMARK   10  A    between atoms: C_24  and  C_25 
ROOT
ATOM      1  S   UNL d   1      39.868  -7.378  -7.264  0.00  0.00    -0.136 SA
ATOM      2  O   UNL d   1      40.856  -7.460  -3.238  0.00  0.00    -0.271 OA
ATOM      3  N   UNL d   1      40.715  -8.778  -5.163  0.00  0.00    -0.293 N 
ATOM      4  C   UNL d   1      39.519  -8.629  -5.992  0.00  0.00     0.187 C 
ATOM      5  CA  UNL d   1      38.797  -8.144  -4.677  0.00  0.00     0.211 C 
ATOM      6  C   UNL d   1      40.249  -7.963  -4.165  0.00  0.00     0.251 C 
ATOM      7  CA  UNL d   1      41.986  -8.949  -5.653  0.00  0.00     0.117 C 
ATOM      8  C   UNL d   1      42.261  -8.777  -6.973  0.00  0.00    -0.013 C 
ATOM      9  C   UNL d   1      41.229  -8.341  -7.994  0.00  0.00     0.115 C 
ENDROOT
BRANCH   5  10
ATOM     10  N   UNL d   1      37.785  -7.036  -4.810  0.00  0.00    -0.339 N 
ATOM     11  C   UNL d   1      36.708  -7.088  -3.928  0.00  0.00     0.275 C 
ATOM     12  O   UNL d   1      35.828  -6.227  -3.979  0.00  0.00    -0.266 OA
ATOM     13  H   UNL d   1      37.940  -6.192  -5.355  0.00  0.00     0.163 HD
BRANCH  11  14
ATOM     14  C   UNL d   1      36.577  -8.175  -2.864  0.00  0.00     0.180 C 
ATOM     15  N   UNL d   1      35.857  -9.259  -2.893  0.00  0.00    -0.126 NA
BRANCH  15  16
ATOM     16  O   UNL d   1      35.115  -9.503  -4.045  0.00  0.00    -0.261 OA
ATOM     17  C   UNL d   1      33.761  -9.118  -3.733  0.00  0.00     0.240 C 
ENDBRANCH  15  16
BRANCH  14  18
ATOM     18  C   UNL d   1      37.248  -7.940  -1.578  0.00  0.00     0.102 A 
ATOM     19  N   UNL d   1      36.887  -6.875  -0.760  0.00  0.00    -0.222 NA
ATOM     20  C   UNL d   1      37.508  -6.955   0.388  0.00  0.00     0.164 A 
ATOM     21  S   UNL d   1      38.639  -8.236   0.531  0.00  0.00    -0.062 SA
ATOM     22  C   UNL d   1      38.229  -8.760  -1.045  0.00  0.00     0.087 A 
BRANCH  20  23
ATOM     23  N   UNL d   1      37.285  -6.104   1.397  0.00  0.00    -0.378 N 
ATOM     24  H   UNL d   1      36.600  -5.368   1.289  0.00  0.00     0.158 HD
ATOM     25  H   UNL d   1      37.406  -6.462   2.336  0.00  0.00     0.158 HD
ENDBRANCH  20  23
ENDBRANCH  14  18
ENDBRANCH  11  14
ENDBRANCH   5  10
BRANCH   7  26
ATOM     26  C   UNL d   1      43.045  -9.484  -4.710  0.00  0.00     0.194 C 
ATOM     27  OXT UNL d   1      43.213 -10.675  -4.493  0.00  0.00    -0.645 OA
BRANCH  26  28
ATOM     28  O   UNL d   1      43.723  -8.552  -4.011  0.00  0.00    -0.772 OA
ATOM     29  H   UNL d   1      43.173  -7.918  -3.503  0.00  0.00     0.167 HD
ENDBRANCH  26  28
ENDBRANCH   7  26
BRANCH   8  30
ATOM     30  C   UNL d   1      43.648  -8.933  -7.581  0.00  0.00     0.216 C 
BRANCH  30  31
ATOM     31  O   UNL d   1      44.413  -7.734  -7.388  0.00  0.00    -0.317 OA
BRANCH  31  32
ATOM     32  C   UNL d   1      45.689  -7.897  -6.953  0.00  0.00     0.255 C 
ATOM     33  O   UNL d   1      46.067  -7.772  -5.796  0.00  0.00    -0.266 OA
ATOM     34  C   UNL d   1      46.579  -8.270  -8.099  0.00  0.00     0.126 C 
ENDBRANCH  31  32
ENDBRANCH  30  31
ENDBRANCH   8  30
TORSDOF 10
ENDMDL
MODEL 8
REMARK VINA RESULT:      -6.8      2.686      4.257
REMARK  10 active torsions:
REMARK  status: ('A' for Active; 'I' for Inactive)
REMARK    1  A    between atoms: O_4  and  C_21 
REMARK    2  A    between atoms: O_4  and  C_26 
REMARK    3  A    between atoms: O_5  and  C_22 
REMARK    4  A    between atoms: O_8  and  N_12 
REMARK    5  A    between atoms: CA_16  and  N_11 
REMARK       I    between atoms: N_11  and  C_23 
REMARK    6  A    between atoms: N_14  and  C_29 
REMARK    7  A    between atoms: CA_18  and  C_22 
REMARK    8  A    between atoms: C_19  and  C_21 
REMARK    9  A    between atoms: C_23  and  C_24 
REMARK   10  A    between atoms: C_24  and  C_25 
ROOT
ATOM      1  S   UNL d   1      38.274  -8.353  -3.047  0.00  0.00    -0.136 SA
ATOM      2  O   UNL d   1      42.181  -9.652  -2.552  0.00  0.00    -0.271 OA
ATOM      3  N   UNL d   1      40.854  -7.743  -2.789  0.00  0.00    -0.293 N 
ATOM      4  C   UNL d   1      39.815  -7.771  -3.818  0.00  0.00     0.187 C 
ATOM      5  CA  UNL d   1      40.712  -8.844  -4.544  0.00  0.00     0.211 C 
ATOM      6  C   UNL d   1      41.393  -8.947  -3.156  0.00  0.00     0.251 C 
ATOM      7  CA  UNL d   1      40.706  -7.173  -1.548  0.00  0.00     0.117 C 
ATOM      8  C   UNL d   1      39.488  -6.773  -1.097  0.00  0.00    -0.013 C 
ATOM      9  C   UNL d   1      38.203  -6.958  -1.880  0.00  0.00     0.115 C 
ENDROOT
BRANCH   5  10
ATOM     10  N   UNL d   1      40.008  -9.976  -5.246  0.00  0.00    -0.339 N 
ATOM     11  C   UNL d   1      39.915  -9.869  -6.632  0.00  0.00     0.275 C 
ATOM     12  O   UNL d   1      39.344 -10.747  -7.280  0.00  0.00    -0.266 OA
ATOM     13  H   UNL d   1      39.778 -10.860  -4.800  0.00  0.00     0.163 HD
BRANCH  11  14
ATOM     14  C   UNL d   1      40.524  -8.700  -7.401  0.00  0.00     0.180 C 
ATOM     15  N   UNL d   1      39.917  -7.717  -8.001  0.00  0.00    -0.126 NA
BRANCH  15  16
ATOM     16  O   UNL d   1      38.527  -7.682  -7.926  0.00  0.00    -0.261 OA
ATOM     17  C   UNL d   1      38.209  -6.716  -6.905  0.00  0.00     0.240 C 
ENDBRANCH  15  16
BRANCH  14  18
ATOM     18  C   UNL d   1      41.978  -8.718  -7.613  0.00  0.00     0.102 A 
ATOM     19  N   UNL d   1      42.673  -7.561  -7.948  0.00  0.00    -0.222 NA
ATOM     20  C   UNL d   1      43.961  -7.786  -7.937  0.00  0.00     0.164 A 
ATOM     21  S   UNL d   1      44.426  -9.409  -7.634  0.00  0.00    -0.062 SA
ATOM     22  C   UNL d   1      42.779  -9.835  -7.449  0.00  0.00     0.087 A 
BRANCH  20  23
ATOM     23  N   UNL d   1      44.869  -6.825  -8.143  0.00  0.00    -0.378 N 
ATOM     24  H   UNL d   1      45.698  -6.787  -7.564  0.00  0.00     0.158 HD
ATOM     25  H   UNL d   1      44.976  -6.489  -9.092  0.00  0.00     0.158 HD
ENDBRANCH  20  23
ENDBRANCH  14  18
ENDBRANCH  11  14
ENDBRANCH   5  10
BRANCH   7  26
ATOM     26  C   UNL d   1      41.959  -6.863  -0.755  0.00  0.00     0.194 C 
ATOM     27  OXT UNL d   1      42.501  -7.666  -0.009  0.00  0.00    -0.645 OA
BRANCH  26  28
ATOM     28  O   UNL d   1      42.385  -5.585  -0.819  0.00  0.00    -0.772 OA
ATOM     29  H   UNL d   1      41.681  -4.908  -0.913  0.00  0.00     0.167 HD
ENDBRANCH  26  28
ENDBRANCH   7  26
BRANCH   8  30
ATOM     30  C   UNL d   1      39.248  -6.151   0.272  0.00  0.00     0.216 C 
BRANCH  30  31
ATOM     31  O   UNL d   1      39.102  -7.177   1.265  0.00  0.00    -0.317 OA
BRANCH  31  32
ATOM     32  C   UNL d   1      37.867  -7.315   1.811  0.00  0.00     0.255 C 
ATOM     33  O   UNL d   1      36.950  -6.513   1.706  0.00  0.00    -0.266 OA
ATOM     34  C   UNL d   1      37.777  -8.611   2.557  0.00  0.00     0.126 C 
ENDBRANCH  31  32
ENDBRANCH  30  31
ENDBRANCH   8  30
TORSDOF 10
ENDMDL
MODEL 9
REMARK VINA RESULT:      -6.8      3.088      8.134
REMARK  10 active torsions:
REMARK  status: ('A' for Active; 'I' for Inactive)
REMARK    1  A    between atoms: O_4  and  C_21 
REMARK    2  A    between atoms: O_4  and  C_26 
REMARK    3  A    between atoms: O_5  and  C_22 
REMARK    4  A    between atoms: O_8  and  N_12 
REMARK    5  A    between atoms: CA_16  and  N_11 
REMARK       I    between atoms: N_11  and  C_23 
REMARK    6  A    between atoms: N_14  and  C_29 
REMARK    7  A    between atoms: CA_18  and  C_22 
REMARK    8  A    between atoms: C_19  and  C_21 
REMARK    9  A    between atoms: C_23  and  C_24 
REMARK   10  A    between atoms: C_24  and  C_25 
ROOT
ATOM      1  S   UNL d   1      39.886  -9.020  -6.786  0.00  0.00    -0.136 SA
ATOM      2  O   UNL d   1      36.157  -8.514  -5.044  0.00  0.00    -0.271 OA
ATOM      3  N   UNL d   1      37.953  -7.364  -6.001  0.00  0.00    -0.293 N 
ATOM      4  C   UNL d   1      39.299  -7.771  -5.601  0.00  0.00     0.187 C 
ATOM      5  CA  UNL d   1      38.634  -8.291  -4.271  0.00  0.00     0.211 C 
ATOM      6  C   UNL d   1      37.327  -8.183  -5.098  0.00  0.00     0.251 C 
ATOM      7  CA  UNL d   1      37.594  -7.005  -7.277  0.00  0.00     0.117 C 
ATOM      8  C   UNL d   1      38.431  -7.209  -8.327  0.00  0.00    -0.013 C 
ATOM      9  C   UNL d   1      39.784  -7.881  -8.202  0.00  0.00     0.115 C 
ENDROOT
BRANCH   5  10
ATOM     10  N   UNL d   1      39.175  -9.565  -3.675  0.00  0.00    -0.339 N 
ATOM     11  C   UNL d   1      39.980  -9.415  -2.549  0.00  0.00     0.275 C 
ATOM     12  O   UNL d   1      40.473 -10.407  -2.009  0.00  0.00    -0.266 OA
ATOM     13  H   UNL d   1      38.843 -10.492  -3.930  0.00  0.00     0.163 HD
BRANCH  11  14
ATOM     14  C   UNL d   1      40.265  -8.051  -1.926  0.00  0.00     0.180 C 
ATOM     15  N   UNL d   1      41.291  -7.272  -2.111  0.00  0.00    -0.126 NA
BRANCH  15  16
ATOM     16  O   UNL d   1      42.264  -7.697  -3.011  0.00  0.00    -0.261 OA
ATOM     17  C   UNL d   1      43.392  -8.106  -2.212  0.00  0.00     0.240 C 
ENDBRANCH  15  16
BRANCH  14  18
ATOM     18  C   UNL d   1      39.339  -7.578  -0.889  0.00  0.00     0.102 A 
ATOM     19  N   UNL d   1      39.334  -8.137   0.384  0.00  0.00    -0.222 NA
ATOM     20  C   UNL d   1      38.539  -7.461   1.173  0.00  0.00     0.164 A 
ATOM     21  S   UNL d   1      37.667  -6.186   0.430  0.00  0.00    -0.062 SA
ATOM     22  C   UNL d   1      38.451  -6.527  -1.052  0.00  0.00     0.087 A 
BRANCH  20  23
ATOM     23  N   UNL d   1      38.408  -7.732   2.477  0.00  0.00    -0.378 N 
ATOM     24  H   UNL d   1      37.505  -7.633   2.920  0.00  0.00     0.158 HD
ATOM     25  H   UNL d   1      39.014  -8.445   2.862  0.00  0.00     0.158 HD
ENDBRANCH  20  23
ENDBRANCH  14  18
ENDBRANCH  11  14
ENDBRANCH   5  10
BRANCH   7  26
ATOM     26  C   UNL d   1      36.302  -6.235  -7.461  0.00  0.00     0.194 C 
ATOM     27  OXT UNL d   1      35.327  -6.685  -8.046  0.00  0.00    -0.645 OA
BRANCH  26  28
ATOM     28  O   UNL d   1      36.327  -4.952  -7.047  0.00  0.00    -0.772 OA
ATOM     29  H   UNL d   1      37.149  -4.456  -7.251  0.00  0.00     0.167 HD
ENDBRANCH  26  28
ENDBRANCH   7  26
BRANCH   8  30
ATOM     30  C   UNL d   1      38.092  -6.852  -9.768  0.00  0.00     0.216 C 
BRANCH  30  31
ATOM     31  O   UNL d   1      39.264  -6.387 -10.454  0.00  0.00    -0.317 OA
BRANCH  31  32
ATOM     32  C   UNL d   1      39.054  -5.616 -11.552  0.00  0.00     0.255 C 
ATOM     33  O   UNL d   1      39.884  -4.888 -12.079  0.00  0.00    -0.266 OA
ATOM     34  C   UNL d   1      37.650  -5.794 -12.042  0.00  0.00     0.126 C 
ENDBRANCH  31  32
ENDBRANCH  30  31
ENDBRANCH   8  30
TORSDOF 10
ENDMDL
