MODEL 1
REMARK VINA RESULT:      -7.5      0.000      0.000
REMARK  10 active torsions:
REMARK  status: ('A' for Active; 'I' for Inactive)
REMARK    1  A    between atoms: O_4  and  C_21 
REMARK    2  A    between atoms: O_4  and  C_26 
REMARK    3  A    between atoms: O_5  and  C_22 
REMARK    4  A    between atoms: O_8  and  N_12 
REMARK    5  A    between atoms: CA_16  and  N_11 
REMARK       I    between atoms: N_11  and  C_23 
REMARK    6  A    between atoms: N_14  and  C_29 
REMARK    7  A    between atoms: CA_18  and  C_22 
REMARK    8  A    between atoms: C_19  and  C_21 
REMARK    9  A    between atoms: C_23  and  C_24 
REMARK   10  A    between atoms: C_24  and  C_25 
ROOT
ATOM      1  S   UNL d   1      38.785  -9.781  -1.890  0.00  0.00    -0.136 SA
ATOM      2  O   UNL d   1      41.959  -7.311  -2.884  0.00  0.00    -0.271 OA
ATOM      3  N   UNL d   1      39.778  -7.326  -2.094  0.00  0.00    -0.293 N 
ATOM      4  C   UNL d   1      38.808  -8.182  -2.764  0.00  0.00     0.187 C 
ATOM      5  CA  UNL d   1      39.735  -8.062  -4.029  0.00  0.00     0.211 C 
ATOM      6  C   UNL d   1      40.793  -7.570  -2.972  0.00  0.00     0.251 C 
ATOM      7  CA  UNL d   1      39.796  -7.099  -0.743  0.00  0.00     0.117 C 
ATOM      8  C   UNL d   1      39.063  -7.863   0.117  0.00  0.00    -0.013 C 
ATOM      9  C   UNL d   1      38.206  -9.033  -0.333  0.00  0.00     0.115 C 
ENDROOT
BRANCH   5  10
ATOM     10  N   UNL d   1      39.864  -9.286  -4.873  0.00  0.00    -0.339 N 
ATOM     11  C   UNL d   1      39.156  -9.356  -6.086  0.00  0.00     0.275 C 
ATOM     12  O   UNL d   1      39.222 -10.347  -6.805  0.00  0.00    -0.266 OA
ATOM     13  H   UNL d   1      40.652  -9.925  -4.757  0.00  0.00     0.163 HD
BRANCH  11  14
ATOM     14  C   UNL d   1      38.236  -8.164  -6.443  0.00  0.00     0.180 C 
ATOM     15  N   UNL d   1      38.531  -7.159  -7.224  0.00  0.00    -0.126 NA
BRANCH  15  16
ATOM     16  O   UNL d   1      39.824  -7.133  -7.741  0.00  0.00    -0.261 OA
ATOM     17  C   UNL d   1      39.741  -7.541  -9.114  0.00  0.00     0.240 C 
ENDBRANCH  15  16
BRANCH  14  18
ATOM     18  C   UNL d   1      36.909  -8.042  -5.840  0.00  0.00     0.102 A 
ATOM     19  N   UNL d   1      36.401  -9.018  -4.991  0.00  0.00    -0.222 NA
ATOM     20  C   UNL d   1      35.292  -8.597  -4.437  0.00  0.00     0.164 A 
ATOM     21  S   UNL d   1      34.736  -7.057  -4.947  0.00  0.00    -0.062 SA
ATOM     22  C   UNL d   1      36.104  -6.918  -5.960  0.00  0.00     0.087 A 
BRANCH  20  23
ATOM     23  N   UNL d   1      34.642  -9.299  -3.504  0.00  0.00    -0.378 N 
ATOM     24  H   UNL d   1      33.738  -8.983  -3.185  0.00  0.00     0.158 HD
ATOM     25  H   UNL d   1      34.783 -10.303  -3.497  0.00  0.00     0.158 HD
ENDBRANCH  20  23
ENDBRANCH  14  18
ENDBRANCH  11  14
ENDBRANCH   5  10
BRANCH   7  26
ATOM     26  C   UNL d   1      40.532  -5.869  -0.246  0.00  0.00     0.194 C 
ATOM     27  OXT UNL d   1      39.982  -4.815   0.043  0.00  0.00    -0.645 OA
BRANCH  26  28
ATOM     28  O   UNL d   1      41.879  -5.955  -0.281  0.00  0.00    -0.772 OA
ATOM     29  H   UNL d   1      42.290  -6.397   0.494  0.00  0.00     0.167 HD
ENDBRANCH  26  28
ENDBRANCH   7  26
BRANCH   8  30
ATOM     30  C   UNL d   1      39.081  -7.698   1.629  0.00  0.00     0.216 C 
BRANCH  30  31
ATOM     31  O   UNL d   1      38.080  -8.541   2.226  0.00  0.00    -0.317 OA
BRANCH  31  32
ATOM     32  C   UNL d   1      37.097  -7.911   2.919  0.00  0.00     0.255 C 
ATOM     33  O   UNL d   1      36.640  -6.808   2.662  0.00  0.00    -0.266 OA
ATOM     34  C   UNL d   1      36.630  -8.778   4.049  0.00  0.00     0.126 C 
ENDBRANCH  31  32
ENDBRANCH  30  31
ENDBRANCH   8  30
TORSDOF 10
ENDMDL
MODEL 2
REMARK VINA RESULT:      -7.3      2.004      2.524
REMARK  10 active torsions:
REMARK  status: ('A' for Active; 'I' for Inactive)
REMARK    1  A    between atoms: O_4  and  C_21 
REMARK    2  A    between atoms: O_4  and  C_26 
REMARK    3  A    between atoms: O_5  and  C_22 
REMARK    4  A    between atoms: O_8  and  N_12 
REMARK    5  A    between atoms: CA_16  and  N_11 
REMARK       I    between atoms: N_11  and  C_23 
REMARK    6  A    between atoms: N_14  and  C_29 
REMARK    7  A    between atoms: CA_18  and  C_22 
REMARK    8  A    between atoms: C_19  and  C_21 
REMARK    9  A    between atoms: C_23  and  C_24 
REMARK   10  A    between atoms: C_24  and  C_25 
ROOT
ATOM      1  S   UNL d   1      37.536  -8.528  -2.896  0.00  0.00    -0.136 SA
ATOM      2  O   UNL d   1      41.622  -8.624  -2.220  0.00  0.00    -0.271 OA
ATOM      3  N   UNL d   1      39.807  -7.208  -2.513  0.00  0.00    -0.293 N 
ATOM      4  C   UNL d   1      38.871  -7.500  -3.588  0.00  0.00     0.187 C 
ATOM      5  CA  UNL d   1      40.069  -8.244  -4.286  0.00  0.00     0.211 C 
ATOM      6  C   UNL d   1      40.694  -8.192  -2.841  0.00  0.00     0.251 C 
ATOM      7  CA  UNL d   1      39.441  -6.703  -1.293  0.00  0.00     0.117 C 
ATOM      8  C   UNL d   1      38.135  -6.676  -0.897  0.00  0.00    -0.013 C 
ATOM      9  C   UNL d   1      36.999  -7.226  -1.741  0.00  0.00     0.115 C 
ENDROOT
BRANCH   5  10
ATOM     10  N   UNL d   1      39.730  -9.490  -5.033  0.00  0.00    -0.339 N 
ATOM     11  C   UNL d   1      39.703  -9.456  -6.439  0.00  0.00     0.275 C 
ATOM     12  O   UNL d   1      39.417 -10.452  -7.094  0.00  0.00    -0.266 OA
ATOM     13  H   UNL d   1      39.809 -10.407  -4.591  0.00  0.00     0.163 HD
BRANCH  11  14
ATOM     14  C   UNL d   1      39.980  -8.096  -7.123  0.00  0.00     0.180 C 
ATOM     15  N   UNL d   1      41.136  -7.496  -7.223  0.00  0.00    -0.126 NA
BRANCH  15  16
ATOM     16  O   UNL d   1      42.215  -8.119  -6.601  0.00  0.00    -0.261 OA
ATOM     17  C   UNL d   1      43.256  -8.244  -7.581  0.00  0.00     0.240 C 
ENDBRANCH  15  16
BRANCH  14  18
ATOM     18  C   UNL d   1      38.883  -7.311  -7.688  0.00  0.00     0.102 A 
ATOM     19  N   UNL d   1      37.937  -6.693  -6.879  0.00  0.00    -0.222 NA
ATOM     20  C   UNL d   1      37.179  -5.902  -7.598  0.00  0.00     0.164 A 
ATOM     21  S   UNL d   1      37.483  -5.904  -9.285  0.00  0.00    -0.062 SA
ATOM     22  C   UNL d   1      38.755  -7.017  -9.038  0.00  0.00     0.087 A 
BRANCH  20  23
ATOM     23  N   UNL d   1      36.247  -5.112  -7.057  0.00  0.00    -0.378 N 
ATOM     24  H   UNL d   1      36.485  -4.163  -6.809  0.00  0.00     0.158 HD
ATOM     25  H   UNL d   1      35.288  -5.263  -7.345  0.00  0.00     0.158 HD
ENDBRANCH  20  23
ENDBRANCH  14  18
ENDBRANCH  11  14
ENDBRANCH   5  10
BRANCH   7  26
ATOM     26  C   UNL d   1      40.513  -6.026  -0.459  0.00  0.00     0.194 C 
ATOM     27  OXT UNL d   1      40.607  -4.814  -0.322  0.00  0.00    -0.645 OA
BRANCH  26  28
ATOM     28  O   UNL d   1      41.472  -6.850   0.017  0.00  0.00    -0.772 OA
ATOM     29  H   UNL d   1      41.959  -6.515   0.801  0.00  0.00     0.167 HD
ENDBRANCH  26  28
ENDBRANCH   7  26
BRANCH   8  30
ATOM     30  C   UNL d   1      37.668  -6.181   0.463  0.00  0.00     0.216 C 
BRANCH  30  31
ATOM     31  O   UNL d   1      37.215  -7.290   1.259  0.00  0.00    -0.317 OA
BRANCH  31  32
ATOM     32  C   UNL d   1      38.089  -7.765   2.184  0.00  0.00     0.255 C 
ATOM     33  O   UNL d   1      39.251  -7.412   2.312  0.00  0.00    -0.266 OA
ATOM     34  C   UNL d   1      37.414  -8.784   3.050  0.00  0.00     0.126 C 
ENDBRANCH  31  32
ENDBRANCH  30  31
ENDBRANCH   8  30
TORSDOF 10
ENDMDL
MODEL 3
REMARK VINA RESULT:      -7.2      2.745      8.312
REMARK  10 active torsions:
REMARK  status: ('A' for Active; 'I' for Inactive)
REMARK    1  A    between atoms: O_4  and  C_21 
REMARK    2  A    between atoms: O_4  and  C_26 
REMARK    3  A    between atoms: O_5  and  C_22 
REMARK    4  A    between atoms: O_8  and  N_12 
REMARK    5  A    between atoms: CA_16  and  N_11 
REMARK       I    between atoms: N_11  and  C_23 
REMARK    6  A    between atoms: N_14  and  C_29 
REMARK    7  A    between atoms: CA_18  and  C_22 
REMARK    8  A    between atoms: C_19  and  C_21 
REMARK    9  A    between atoms: C_23  and  C_24 
REMARK   10  A    between atoms: C_24  and  C_25 
ROOT
ATOM      1  S   UNL d   1      36.077  -6.186  -5.043  0.00  0.00    -0.136 SA
ATOM      2  O   UNL d   1      40.184  -6.470  -5.506  0.00  0.00    -0.271 OA
ATOM      3  N   UNL d   1      38.185  -7.608  -5.809  0.00  0.00    -0.293 N 
ATOM      4  C   UNL d   1      37.207  -7.582  -4.731  0.00  0.00     0.187 C 
ATOM      5  CA  UNL d   1      38.428  -7.325  -3.773  0.00  0.00     0.211 C 
ATOM      6  C   UNL d   1      39.160  -6.951  -5.116  0.00  0.00     0.251 C 
ATOM      7  CA  UNL d   1      37.861  -7.583  -7.140  0.00  0.00     0.117 C 
ATOM      8  C   UNL d   1      36.601  -7.271  -7.560  0.00  0.00    -0.013 C 
ATOM      9  C   UNL d   1      35.477  -6.895  -6.611  0.00  0.00     0.115 C 
ENDROOT
BRANCH   5  10
ATOM     10  N   UNL d   1      38.188  -6.391  -2.633  0.00  0.00    -0.339 N 
ATOM     11  C   UNL d   1      38.895  -6.585  -1.432  0.00  0.00     0.275 C 
ATOM     12  O   UNL d   1      38.722  -5.851  -0.466  0.00  0.00    -0.266 OA
ATOM     13  H   UNL d   1      37.772  -5.471  -2.784  0.00  0.00     0.163 HD
BRANCH  11  14
ATOM     14  C   UNL d   1      39.848  -7.802  -1.357  0.00  0.00     0.180 C 
ATOM     15  N   UNL d   1      39.515  -9.036  -1.081  0.00  0.00    -0.126 NA
BRANCH  15  16
ATOM     16  O   UNL d   1      38.177  -9.263  -0.769  0.00  0.00    -0.261 OA
ATOM     17  C   UNL d   1      37.675 -10.212  -1.722  0.00  0.00     0.240 C 
ENDBRANCH  15  16
BRANCH  14  18
ATOM     18  C   UNL d   1      41.289  -7.632  -1.540  0.00  0.00     0.102 A 
ATOM     19  N   UNL d   1      42.045  -6.844  -0.681  0.00  0.00    -0.222 NA
ATOM     20  C   UNL d   1      43.320  -7.000  -0.935  0.00  0.00     0.164 A 
ATOM     21  S   UNL d   1      43.702  -8.021  -2.258  0.00  0.00    -0.062 SA
ATOM     22  C   UNL d   1      42.035  -8.315  -2.490  0.00  0.00     0.087 A 
BRANCH  20  23
ATOM     23  N   UNL d   1      44.276  -6.431  -0.195  0.00  0.00    -0.378 N 
ATOM     24  H   UNL d   1      44.146  -5.489   0.145  0.00  0.00     0.158 HD
ATOM     25  H   UNL d   1      44.825  -7.040   0.401  0.00  0.00     0.158 HD
ENDBRANCH  20  23
ENDBRANCH  14  18
ENDBRANCH  11  14
ENDBRANCH   5  10
BRANCH   7  26
ATOM     26  C   UNL d   1      38.904  -8.070  -8.128  0.00  0.00     0.194 C 
ATOM     27  OXT UNL d   1      39.064  -9.245  -8.428  0.00  0.00    -0.645 OA
BRANCH  26  28
ATOM     28  O   UNL d   1      39.768  -7.126  -8.560  0.00  0.00    -0.772 OA
ATOM     29  H   UNL d   1      40.507  -7.458  -9.116  0.00  0.00     0.167 HD
ENDBRANCH  26  28
ENDBRANCH   7  26
BRANCH   8  30
ATOM     30  C   UNL d   1      36.191  -7.172  -9.021  0.00  0.00     0.216 C 
BRANCH  30  31
ATOM     31  O   UNL d   1      36.430  -5.840  -9.509  0.00  0.00    -0.317 OA
BRANCH  31  32
ATOM     32  C   UNL d   1      37.396  -5.709 -10.455  0.00  0.00     0.255 C 
ATOM     33  O   UNL d   1      38.350  -4.949 -10.398  0.00  0.00    -0.266 OA
ATOM     34  C   UNL d   1      37.133  -6.653 -11.589  0.00  0.00     0.126 C 
ENDBRANCH  31  32
ENDBRANCH  30  31
ENDBRANCH   8  30
TORSDOF 10
ENDMDL
MODEL 4
REMARK VINA RESULT:      -7.2      3.598      6.356
REMARK  10 active torsions:
REMARK  status: ('A' for Active; 'I' for Inactive)
REMARK    1  A    between atoms: O_4  and  C_21 
REMARK    2  A    between atoms: O_4  and  C_26 
REMARK    3  A    between atoms: O_5  and  C_22 
REMARK    4  A    between atoms: O_8  and  N_12 
REMARK    5  A    between atoms: CA_16  and  N_11 
REMARK       I    between atoms: N_11  and  C_23 
REMARK    6  A    between atoms: N_14  and  C_29 
REMARK    7  A    between atoms: CA_18  and  C_22 
REMARK    8  A    between atoms: C_19  and  C_21 
REMARK    9  A    between atoms: C_23  and  C_24 
REMARK   10  A    between atoms: C_24  and  C_25 
ROOT
ATOM      1  S   UNL d   1      38.323 -10.912  -3.732  0.00  0.00    -0.136 SA
ATOM      2  O   UNL d   1      39.930  -8.602  -0.692  0.00  0.00    -0.271 OA
ATOM      3  N   UNL d   1      38.907  -8.506  -2.772  0.00  0.00    -0.293 N 
ATOM      4  C   UNL d   1      39.366  -9.420  -3.808  0.00  0.00     0.187 C 
ATOM      5  CA  UNL d   1      40.732  -9.450  -3.028  0.00  0.00     0.211 C 
ATOM      6  C   UNL d   1      39.860  -8.856  -1.859  0.00  0.00     0.251 C 
ATOM      7  CA  UNL d   1      37.600  -8.131  -2.604  0.00  0.00     0.117 C 
ATOM      8  C   UNL d   1      36.585  -8.787  -3.235  0.00  0.00    -0.013 C 
ATOM      9  C   UNL d   1      36.804  -9.991  -4.135  0.00  0.00     0.115 C 
ENDROOT
BRANCH   5  10
ATOM     10  N   UNL d   1      41.444 -10.761  -2.992  0.00  0.00    -0.339 N 
ATOM     11  C   UNL d   1      42.806 -10.807  -3.340  0.00  0.00     0.275 C 
ATOM     12  O   UNL d   1      43.428 -11.864  -3.336  0.00  0.00    -0.266 OA
ATOM     13  H   UNL d   1      41.074 -11.546  -2.454  0.00  0.00     0.163 HD
BRANCH  11  14
ATOM     14  C   UNL d   1      43.469  -9.485  -3.794  0.00  0.00     0.180 C 
ATOM     15  N   UNL d   1      43.416  -8.956  -4.987  0.00  0.00    -0.126 NA
BRANCH  15  16
ATOM     16  O   UNL d   1      42.740  -9.688  -5.961  0.00  0.00    -0.261 OA
ATOM     17  C   UNL d   1      41.788  -8.804  -6.571  0.00  0.00     0.240 C 
ENDBRANCH  15  16
BRANCH  14  18
ATOM     18  C   UNL d   1      44.308  -8.719  -2.872  0.00  0.00     0.102 A 
ATOM     19  N   UNL d   1      43.781  -7.713  -2.072  0.00  0.00    -0.222 NA
ATOM     20  C   UNL d   1      44.679  -7.311  -1.207  0.00  0.00     0.164 A 
ATOM     21  S   UNL d   1      46.226  -8.037  -1.341  0.00  0.00    -0.062 SA
ATOM     22  C   UNL d   1      45.646  -8.997  -2.629  0.00  0.00     0.087 A 
BRANCH  20  23
ATOM     23  N   UNL d   1      44.409  -6.416  -0.253  0.00  0.00    -0.378 N 
ATOM     24  H   UNL d   1      43.491  -5.997  -0.211  0.00  0.00     0.158 HD
ATOM     25  H   UNL d   1      44.879  -6.530   0.637  0.00  0.00     0.158 HD
ENDBRANCH  20  23
ENDBRANCH  14  18
ENDBRANCH  11  14
ENDBRANCH   5  10
BRANCH   7  26
ATOM     26  C   UNL d   1      37.327  -6.862  -1.819  0.00  0.00     0.194 C 
ATOM     27  OXT UNL d   1      36.957  -6.847  -0.653  0.00  0.00    -0.645 OA
BRANCH  26  28
ATOM     28  O   UNL d   1      37.374  -5.721  -2.540  0.00  0.00    -0.772 OA
ATOM     29  H   UNL d   1      37.234  -5.831  -3.506  0.00  0.00     0.167 HD
ENDBRANCH  26  28
ENDBRANCH   7  26
BRANCH   8  30
ATOM     30  C   UNL d   1      35.112  -8.457  -3.049  0.00  0.00     0.216 C 
BRANCH  30  31
ATOM     31  O   UNL d   1      34.508  -8.174  -4.323  0.00  0.00    -0.317 OA
BRANCH  31  32
ATOM     32  C   UNL d   1      34.929  -7.047  -4.953  0.00  0.00     0.255 C 
ATOM     33  O   UNL d   1      35.060  -5.948  -4.434  0.00  0.00    -0.266 OA
ATOM     34  C   UNL d   1      35.232  -7.345  -6.390  0.00  0.00     0.126 C 
ENDBRANCH  31  32
ENDBRANCH  30  31
ENDBRANCH   8  30
TORSDOF 10
ENDMDL
MODEL 5
REMARK VINA RESULT:      -7.0      3.624      8.645
REMARK  10 active torsions:
REMARK  status: ('A' for Active; 'I' for Inactive)
REMARK    1  A    between atoms: O_4  and  C_21 
REMARK    2  A    between atoms: O_4  and  C_26 
REMARK    3  A    between atoms: O_5  and  C_22 
REMARK    4  A    between atoms: O_8  and  N_12 
REMARK    5  A    between atoms: CA_16  and  N_11 
REMARK       I    between atoms: N_11  and  C_23 
REMARK    6  A    between atoms: N_14  and  C_29 
REMARK    7  A    between atoms: CA_18  and  C_22 
REMARK    8  A    between atoms: C_19  and  C_21 
REMARK    9  A    between atoms: C_23  and  C_24 
REMARK   10  A    between atoms: C_24  and  C_25 
ROOT
ATOM      1  S   UNL d   1      39.418  -8.936  -7.675  0.00  0.00    -0.136 SA
ATOM      2  O   UNL d   1      35.474  -7.892  -6.956  0.00  0.00    -0.271 OA
ATOM      3  N   UNL d   1      37.590  -7.034  -7.370  0.00  0.00    -0.293 N 
ATOM      4  C   UNL d   1      38.718  -7.604  -6.647  0.00  0.00     0.187 C 
ATOM      5  CA  UNL d   1      37.670  -8.013  -5.547  0.00  0.00     0.211 C 
ATOM      6  C   UNL d   1      36.636  -7.748  -6.705  0.00  0.00     0.251 C 
ATOM      7  CA  UNL d   1      37.648  -6.611  -8.672  0.00  0.00     0.117 C 
ATOM      8  C   UNL d   1      38.702  -6.930  -9.477  0.00  0.00    -0.013 C 
ATOM      9  C   UNL d   1      39.865  -7.794  -9.023  0.00  0.00     0.115 C 
ENDROOT
BRANCH   5  10
ATOM     10  N   UNL d   1      37.895  -9.328  -4.877  0.00  0.00    -0.339 N 
ATOM     11  C   UNL d   1      37.364  -9.536  -3.590  0.00  0.00     0.275 C 
ATOM     12  O   UNL d   1      37.534 -10.595  -2.997  0.00  0.00    -0.266 OA
ATOM     13  H   UNL d   1      38.149 -10.157  -5.415  0.00  0.00     0.163 HD
BRANCH  11  14
ATOM     14  C   UNL d   1      36.619  -8.353  -2.928  0.00  0.00     0.180 C 
ATOM     15  N   UNL d   1      35.381  -7.993  -3.144  0.00  0.00    -0.126 NA
BRANCH  15  16
ATOM     16  O   UNL d   1      34.684  -8.715  -4.110  0.00  0.00    -0.261 OA
ATOM     17  C   UNL d   1      33.351  -8.184  -4.157  0.00  0.00     0.240 C 
ENDBRANCH  15  16
BRANCH  14  18
ATOM     18  C   UNL d   1      37.314  -7.462  -2.000  0.00  0.00     0.102 A 
ATOM     19  N   UNL d   1      36.702  -6.988  -0.847  0.00  0.00    -0.222 NA
ATOM     20  C   UNL d   1      37.578  -6.372  -0.094  0.00  0.00     0.164 A 
ATOM     21  S   UNL d   1      39.161  -6.241  -0.740  0.00  0.00    -0.062 SA
ATOM     22  C   UNL d   1      38.652  -7.111  -2.118  0.00  0.00     0.087 A 
BRANCH  20  23
ATOM     23  N   UNL d   1      37.279  -5.900   1.120  0.00  0.00    -0.378 N 
ATOM     24  H   UNL d   1      38.017  -5.542   1.709  0.00  0.00     0.158 HD
ATOM     25  H   UNL d   1      36.373  -5.462   1.237  0.00  0.00     0.158 HD
ENDBRANCH  20  23
ENDBRANCH  14  18
ENDBRANCH  11  14
ENDBRANCH   5  10
BRANCH   7  26
ATOM     26  C   UNL d   1      36.581  -5.643  -9.146  0.00  0.00     0.194 C 
ATOM     27  OXT UNL d   1      36.401  -4.534  -8.660  0.00  0.00    -0.645 OA
BRANCH  26  28
ATOM     28  O   UNL d   1      35.720  -6.141 -10.060  0.00  0.00    -0.772 OA
ATOM     29  H   UNL d   1      36.130  -6.686 -10.766  0.00  0.00     0.167 HD
ENDBRANCH  26  28
ENDBRANCH   7  26
BRANCH   8  30
ATOM     30  C   UNL d   1      38.801  -6.539 -10.944  0.00  0.00     0.216 C 
BRANCH  30  31
ATOM     31  O   UNL d   1      39.292  -5.192 -11.060  0.00  0.00    -0.317 OA
BRANCH  31  32
ATOM     32  C   UNL d   1      39.201  -4.621 -12.289  0.00  0.00     0.255 C 
ATOM     33  O   UNL d   1      39.963  -3.780 -12.742  0.00  0.00    -0.266 OA
ATOM     34  C   UNL d   1      38.028  -5.186 -13.031  0.00  0.00     0.126 C 
ENDBRANCH  31  32
ENDBRANCH  30  31
ENDBRANCH   8  30
TORSDOF 10
ENDMDL
MODEL 6
REMARK VINA RESULT:      -6.7      3.711      5.602
REMARK  10 active torsions:
REMARK  status: ('A' for Active; 'I' for Inactive)
REMARK    1  A    between atoms: O_4  and  C_21 
REMARK    2  A    between atoms: O_4  and  C_26 
REMARK    3  A    between atoms: O_5  and  C_22 
REMARK    4  A    between atoms: O_8  and  N_12 
REMARK    5  A    between atoms: CA_16  and  N_11 
REMARK       I    between atoms: N_11  and  C_23 
REMARK    6  A    between atoms: N_14  and  C_29 
REMARK    7  A    between atoms: CA_18  and  C_22 
REMARK    8  A    between atoms: C_19  and  C_21 
REMARK    9  A    between atoms: C_23  and  C_24 
REMARK   10  A    between atoms: C_24  and  C_25 
ROOT
ATOM      1  S   UNL d   1      39.409  -7.055  -5.596  0.00  0.00    -0.136 SA
ATOM      2  O   UNL d   1      35.615  -6.232  -7.042  0.00  0.00    -0.271 OA
ATOM      3  N   UNL d   1      36.909  -7.852  -6.000  0.00  0.00    -0.293 N 
ATOM      4  C   UNL d   1      38.244  -8.108  -6.520  0.00  0.00     0.187 C 
ATOM      5  CA  UNL d   1      37.701  -7.556  -7.890  0.00  0.00     0.211 C 
ATOM      6  C   UNL d   1      36.552  -6.975  -6.983  0.00  0.00     0.251 C 
ATOM      7  CA  UNL d   1      36.584  -7.888  -4.670  0.00  0.00     0.117 C 
ATOM      8  C   UNL d   1      37.547  -7.911  -3.703  0.00  0.00    -0.013 C 
ATOM      9  C   UNL d   1      39.033  -7.865  -4.008  0.00  0.00     0.115 C 
ENDROOT
BRANCH   5  10
ATOM     10  N   UNL d   1      38.654  -6.742  -8.700  0.00  0.00    -0.339 N 
ATOM     11  C   UNL d   1      38.845  -7.065 -10.056  0.00  0.00     0.275 C 
ATOM     12  O   UNL d   1      39.626  -6.432 -10.757  0.00  0.00    -0.266 OA
ATOM     13  H   UNL d   1      38.935  -5.808  -8.400  0.00  0.00     0.163 HD
BRANCH  11  14
ATOM     14  C   UNL d   1      38.082  -8.292 -10.609  0.00  0.00     0.180 C 
ATOM     15  N   UNL d   1      38.453  -9.542 -10.527  0.00  0.00    -0.126 NA
BRANCH  15  16
ATOM     16  O   UNL d   1      39.687  -9.785  -9.931  0.00  0.00    -0.261 OA
ATOM     17  C   UNL d   1      39.488 -10.806  -8.941  0.00  0.00     0.240 C 
ENDBRANCH  15  16
BRANCH  14  18
ATOM     18  C   UNL d   1      36.842  -8.118 -11.365  0.00  0.00     0.102 A 
ATOM     19  N   UNL d   1      35.734  -8.928 -11.146  0.00  0.00    -0.222 NA
ATOM     20  C   UNL d   1      34.700  -8.460 -11.800  0.00  0.00     0.164 A 
ATOM     21  S   UNL d   1      34.992  -7.083 -12.779  0.00  0.00    -0.062 SA
ATOM     22  C   UNL d   1      36.619  -7.082 -12.261  0.00  0.00     0.087 A 
BRANCH  20  23
ATOM     23  N   UNL d   1      33.479  -8.993 -11.691  0.00  0.00    -0.378 N 
ATOM     24  H   UNL d   1      32.851  -8.960 -12.481  0.00  0.00     0.158 HD
ATOM     25  H   UNL d   1      33.376  -9.797 -11.083  0.00  0.00     0.158 HD
ENDBRANCH  20  23
ENDBRANCH  14  18
ENDBRANCH  11  14
ENDBRANCH   5  10
BRANCH   7  26
ATOM     26  C   UNL d   1      35.121  -8.061  -4.305  0.00  0.00     0.194 C 
ATOM     27  OXT UNL d   1      34.574  -9.148  -4.179  0.00  0.00    -0.645 OA
BRANCH  26  28
ATOM     28  O   UNL d   1      34.401  -6.920  -4.271  0.00  0.00    -0.772 OA
ATOM     29  H   UNL d   1      34.441  -6.375  -5.087  0.00  0.00     0.167 HD
ENDBRANCH  26  28
ENDBRANCH   7  26
BRANCH   8  30
ATOM     30  C   UNL d   1      37.255  -7.896  -2.210  0.00  0.00     0.216 C 
BRANCH  30  31
ATOM     31  O   UNL d   1      37.168  -6.538  -1.742  0.00  0.00    -0.317 OA
BRANCH  31  32
ATOM     32  C   UNL d   1      38.061  -6.172  -0.787  0.00  0.00     0.255 C 
ATOM     33  O   UNL d   1      39.225  -5.855  -0.984  0.00  0.00    -0.266 OA
ATOM     34  C   UNL d   1      37.407  -6.193   0.561  0.00  0.00     0.126 C 
ENDBRANCH  31  32
ENDBRANCH  30  31
ENDBRANCH   8  30
TORSDOF 10
ENDMDL
MODEL 7
REMARK VINA RESULT:      -6.7      3.057      7.841
REMARK  10 active torsions:
REMARK  status: ('A' for Active; 'I' for Inactive)
REMARK    1  A    between atoms: O_4  and  C_21 
REMARK    2  A    between atoms: O_4  and  C_26 
REMARK    3  A    between atoms: O_5  and  C_22 
REMARK    4  A    between atoms: O_8  and  N_12 
REMARK    5  A    between atoms: CA_16  and  N_11 
REMARK       I    between atoms: N_11  and  C_23 
REMARK    6  A    between atoms: N_14  and  C_29 
REMARK    7  A    between atoms: CA_18  and  C_22 
REMARK    8  A    between atoms: C_19  and  C_21 
REMARK    9  A    between atoms: C_23  and  C_24 
REMARK   10  A    between atoms: C_24  and  C_25 
ROOT
ATOM      1  S   UNL d   1      39.939  -8.918  -6.886  0.00  0.00    -0.136 SA
ATOM      2  O   UNL d   1      36.291  -8.563  -4.956  0.00  0.00    -0.271 OA
ATOM      3  N   UNL d   1      37.999  -7.358  -5.962  0.00  0.00    -0.293 N 
ATOM      4  C   UNL d   1      39.374  -7.713  -5.642  0.00  0.00     0.187 C 
ATOM      5  CA  UNL d   1      38.801  -8.281  -4.291  0.00  0.00     0.211 C 
ATOM      6  C   UNL d   1      37.431  -8.217  -5.066  0.00  0.00     0.251 C 
ATOM      7  CA  UNL d   1      37.580  -6.951  -7.201  0.00  0.00     0.117 C 
ATOM      8  C   UNL d   1      38.373  -7.094  -8.303  0.00  0.00    -0.013 C 
ATOM      9  C   UNL d   1      39.748  -7.736  -8.260  0.00  0.00     0.115 C 
ENDROOT
BRANCH   5  10
ATOM     10  N   UNL d   1      39.440  -9.526  -3.773  0.00  0.00    -0.339 N 
ATOM     11  C   UNL d   1      40.186  -9.465  -2.582  0.00  0.00     0.275 C 
ATOM     12  O   UNL d   1      40.739 -10.459  -2.126  0.00  0.00    -0.266 OA
ATOM     13  H   UNL d   1      39.119 -10.447  -4.075  0.00  0.00     0.163 HD
BRANCH  11  14
ATOM     14  C   UNL d   1      40.338  -8.080  -1.909  0.00  0.00     0.180 C 
ATOM     15  N   UNL d   1      41.314  -7.230  -2.088  0.00  0.00    -0.126 NA
BRANCH  15  16
ATOM     16  O   UNL d   1      42.347  -7.639  -2.927  0.00  0.00    -0.261 OA
ATOM     17  C   UNL d   1      43.464  -7.977  -2.092  0.00  0.00     0.240 C 
ENDBRANCH  15  16
BRANCH  14  18
ATOM     18  C   UNL d   1      39.367  -7.627  -0.914  0.00  0.00     0.102 A 
ATOM     19  N   UNL d   1      39.302  -8.194   0.353  0.00  0.00    -0.222 NA
ATOM     20  C   UNL d   1      38.494  -7.500   1.115  0.00  0.00     0.164 A 
ATOM     21  S   UNL d   1      37.698  -6.183   0.359  0.00  0.00    -0.062 SA
ATOM     22  C   UNL d   1      38.525  -6.538  -1.092  0.00  0.00     0.087 A 
BRANCH  20  23
ATOM     23  N   UNL d   1      38.319  -7.769   2.412  0.00  0.00    -0.378 N 
ATOM     24  H   UNL d   1      37.851  -8.621   2.683  0.00  0.00     0.158 HD
ATOM     25  H   UNL d   1      39.027  -7.434   3.054  0.00  0.00     0.158 HD
ENDBRANCH  20  23
ENDBRANCH  14  18
ENDBRANCH  11  14
ENDBRANCH   5  10
BRANCH   7  26
ATOM     26  C   UNL d   1      36.271  -6.190  -7.288  0.00  0.00     0.194 C 
ATOM     27  OXT UNL d   1      36.184  -4.971  -7.214  0.00  0.00    -0.645 OA
BRANCH  26  28
ATOM     28  O   UNL d   1      35.161  -6.959  -7.305  0.00  0.00    -0.772 OA
ATOM     29  H   UNL d   1      35.309  -7.911  -7.113  0.00  0.00     0.167 HD
ENDBRANCH  26  28
ENDBRANCH   7  26
BRANCH   8  30
ATOM     30  C   UNL d   1      37.948  -6.714  -9.713  0.00  0.00     0.216 C 
BRANCH  30  31
ATOM     31  O   UNL d   1      37.123  -7.751 -10.272  0.00  0.00    -0.317 OA
BRANCH  31  32
ATOM     32  C   UNL d   1      35.874  -7.385 -10.658  0.00  0.00     0.255 C 
ATOM     33  O   UNL d   1      34.830  -7.829 -10.204  0.00  0.00    -0.266 OA
ATOM     34  C   UNL d   1      35.954  -6.333 -11.721  0.00  0.00     0.126 C 
ENDBRANCH  31  32
ENDBRANCH  30  31
ENDBRANCH   8  30
TORSDOF 10
ENDMDL
MODEL 8
REMARK VINA RESULT:      -6.6      3.620      7.337
REMARK  10 active torsions:
REMARK  status: ('A' for Active; 'I' for Inactive)
REMARK    1  A    between atoms: O_4  and  C_21 
REMARK    2  A    between atoms: O_4  and  C_26 
REMARK    3  A    between atoms: O_5  and  C_22 
REMARK    4  A    between atoms: O_8  and  N_12 
REMARK    5  A    between atoms: CA_16  and  N_11 
REMARK       I    between atoms: N_11  and  C_23 
REMARK    6  A    between atoms: N_14  and  C_29 
REMARK    7  A    between atoms: CA_18  and  C_22 
REMARK    8  A    between atoms: C_19  and  C_21 
REMARK    9  A    between atoms: C_23  and  C_24 
REMARK   10  A    between atoms: C_24  and  C_25 
ROOT
ATOM      1  S   UNL d   1      40.100  -7.432  -7.089  0.00  0.00    -0.136 SA
ATOM      2  O   UNL d   1      40.857  -7.450  -3.016  0.00  0.00    -0.271 OA
ATOM      3  N   UNL d   1      40.852  -8.771  -4.922  0.00  0.00    -0.293 N 
ATOM      4  C   UNL d   1      39.710  -8.681  -5.821  0.00  0.00     0.187 C 
ATOM      5  CA  UNL d   1      38.893  -8.206  -4.563  0.00  0.00     0.211 C 
ATOM      6  C   UNL d   1      40.327  -7.954  -3.964  0.00  0.00     0.251 C 
ATOM      7  CA  UNL d   1      42.145  -8.947  -5.340  0.00  0.00     0.117 C 
ATOM      8  C   UNL d   1      42.497  -8.793  -6.650  0.00  0.00    -0.013 C 
ATOM      9  C   UNL d   1      41.514  -8.385  -7.733  0.00  0.00     0.115 C 
ENDROOT
BRANCH   5  10
ATOM     10  N   UNL d   1      37.863  -7.153  -4.803  0.00  0.00    -0.339 N 
ATOM     11  C   UNL d   1      36.746  -7.084  -3.951  0.00  0.00     0.275 C 
ATOM     12  O   UNL d   1      35.869  -6.244  -4.118  0.00  0.00    -0.266 OA
ATOM     13  H   UNL d   1      38.079  -6.321  -5.355  0.00  0.00     0.163 HD
BRANCH  11  14
ATOM     14  C   UNL d   1      36.634  -8.154  -2.839  0.00  0.00     0.180 C 
ATOM     15  N   UNL d   1      35.970  -9.278  -2.903  0.00  0.00    -0.126 NA
BRANCH  15  16
ATOM     16  O   UNL d   1      35.246  -9.505  -4.070  0.00  0.00    -0.261 OA
ATOM     17  C   UNL d   1      33.866  -9.253  -3.770  0.00  0.00     0.240 C 
ENDBRANCH  15  16
BRANCH  14  18
ATOM     18  C   UNL d   1      37.254  -7.936  -1.532  0.00  0.00     0.102 A 
ATOM     19  N   UNL d   1      36.943  -6.828  -0.753  0.00  0.00    -0.222 NA
ATOM     20  C   UNL d   1      37.475  -6.953   0.437  0.00  0.00     0.164 A 
ATOM     21  S   UNL d   1      38.442  -8.346   0.684  0.00  0.00    -0.062 SA
ATOM     22  C   UNL d   1      38.095  -8.848  -0.911  0.00  0.00     0.087 A 
BRANCH  20  23
ATOM     23  N   UNL d   1      37.255  -6.073   1.419  0.00  0.00    -0.378 N 
ATOM     24  H   UNL d   1      37.868  -6.062   2.221  0.00  0.00     0.158 HD
ATOM     25  H   UNL d   1      36.856  -5.179   1.160  0.00  0.00     0.158 HD
ENDBRANCH  20  23
ENDBRANCH  14  18
ENDBRANCH  11  14
ENDBRANCH   5  10
BRANCH   7  26
ATOM     26  C   UNL d   1      43.146  -9.475  -4.330  0.00  0.00     0.194 C 
ATOM     27  OXT UNL d   1      43.326 -10.665  -4.106  0.00  0.00    -0.645 OA
BRANCH  26  28
ATOM     28  O   UNL d   1      43.740  -8.533  -3.566  0.00  0.00    -0.772 OA
ATOM     29  H   UNL d   1      44.586  -8.805  -3.150  0.00  0.00     0.167 HD
ENDBRANCH  26  28
ENDBRANCH   7  26
BRANCH   8  30
ATOM     30  C   UNL d   1      43.920  -8.919  -7.169  0.00  0.00     0.216 C 
BRANCH  30  31
ATOM     31  O   UNL d   1      44.542  -7.623  -7.216  0.00  0.00    -0.317 OA
BRANCH  31  32
ATOM     32  C   UNL d   1      45.806  -7.577  -7.710  0.00  0.00     0.255 C 
ATOM     33  O   UNL d   1      46.391  -8.502  -8.255  0.00  0.00    -0.266 OA
ATOM     34  C   UNL d   1      46.387  -6.211  -7.507  0.00  0.00     0.126 C 
ENDBRANCH  31  32
ENDBRANCH  30  31
ENDBRANCH   8  30
TORSDOF 10
ENDMDL
MODEL 9
REMARK VINA RESULT:      -6.3      3.375      4.740
REMARK  10 active torsions:
REMARK  status: ('A' for Active; 'I' for Inactive)
REMARK    1  A    between atoms: O_4  and  C_21 
REMARK    2  A    between atoms: O_4  and  C_26 
REMARK    3  A    between atoms: O_5  and  C_22 
REMARK    4  A    between atoms: O_8  and  N_12 
REMARK    5  A    between atoms: CA_16  and  N_11 
REMARK       I    between atoms: N_11  and  C_23 
REMARK    6  A    between atoms: N_14  and  C_29 
REMARK    7  A    between atoms: CA_18  and  C_22 
REMARK    8  A    between atoms: C_19  and  C_21 
REMARK    9  A    between atoms: C_23  and  C_24 
REMARK   10  A    between atoms: C_24  and  C_25 
ROOT
ATOM      1  S   UNL d   1      44.621  -9.262  -3.991  0.00  0.00    -0.136 SA
ATOM      2  O   UNL d   1      41.207  -6.917  -4.099  0.00  0.00    -0.271 OA
ATOM      3  N   UNL d   1      42.321  -8.542  -2.874  0.00  0.00    -0.293 N 
ATOM      4  C   UNL d   1      42.892  -9.675  -3.590  0.00  0.00     0.187 C 
ATOM      5  CA  UNL d   1      41.805  -9.390  -4.691  0.00  0.00     0.211 C 
ATOM      6  C   UNL d   1      41.707  -7.997  -3.964  0.00  0.00     0.251 C 
ATOM      7  CA  UNL d   1      42.905  -7.951  -1.785  0.00  0.00     0.117 C 
ATOM      8  C   UNL d   1      44.198  -8.214  -1.440  0.00  0.00    -0.013 C 
ATOM      9  C   UNL d   1      45.101  -9.138  -2.238  0.00  0.00     0.115 C 
ENDROOT
BRANCH   5  10
ATOM     10  N   UNL d   1      42.229  -9.594  -6.107  0.00  0.00    -0.339 N 
ATOM     11  C   UNL d   1      41.250  -9.865  -7.081  0.00  0.00     0.275 C 
ATOM     12  O   UNL d   1      41.554 -10.051  -8.253  0.00  0.00    -0.266 OA
ATOM     13  H   UNL d   1      43.135  -9.260  -6.439  0.00  0.00     0.163 HD
BRANCH  11  14
ATOM     14  C   UNL d   1      39.785  -9.985  -6.600  0.00  0.00     0.180 C 
ATOM     15  N   UNL d   1      39.207 -11.055  -6.123  0.00  0.00    -0.126 NA
BRANCH  15  16
ATOM     16  O   UNL d   1      39.974 -12.217  -6.098  0.00  0.00    -0.261 OA
ATOM     17  C   UNL d   1      40.018 -12.669  -4.736  0.00  0.00     0.240 C 
ENDBRANCH  15  16
BRANCH  14  18
ATOM     18  C   UNL d   1      38.869  -8.850  -6.714  0.00  0.00     0.102 A 
ATOM     19  N   UNL d   1      38.124  -8.403  -5.629  0.00  0.00    -0.222 NA
ATOM     20  C   UNL d   1      37.533  -7.272  -5.926  0.00  0.00     0.164 A 
ATOM     21  S   UNL d   1      37.754  -6.710  -7.531  0.00  0.00    -0.062 SA
ATOM     22  C   UNL d   1      38.751  -8.060  -7.848  0.00  0.00     0.087 A 
BRANCH  20  23
ATOM     23  N   UNL d   1      36.828  -6.572  -5.032  0.00  0.00    -0.378 N 
ATOM     24  H   UNL d   1      35.830  -6.484  -5.148  0.00  0.00     0.158 HD
ATOM     25  H   UNL d   1      37.160  -6.575  -4.075  0.00  0.00     0.158 HD
ENDBRANCH  20  23
ENDBRANCH  14  18
ENDBRANCH  11  14
ENDBRANCH   5  10
BRANCH   7  26
ATOM     26  C   UNL d   1      42.020  -7.116  -0.878  0.00  0.00     0.194 C 
ATOM     27  OXT UNL d   1      42.027  -5.893  -0.855  0.00  0.00    -0.645 OA
BRANCH  26  28
ATOM     28  O   UNL d   1      41.309  -7.817   0.032  0.00  0.00    -0.772 OA
ATOM     29  H   UNL d   1      41.416  -7.523   0.962  0.00  0.00     0.167 HD
ENDBRANCH  26  28
ENDBRANCH   7  26
BRANCH   8  30
ATOM     30  C   UNL d   1      44.921  -7.550  -0.278  0.00  0.00     0.216 C 
BRANCH  30  31
ATOM     31  O   UNL d   1      44.281  -7.901   0.962  0.00  0.00    -0.317 OA
BRANCH  31  32
ATOM     32  C   UNL d   1      44.996  -8.688   1.807  0.00  0.00     0.255 C 
ATOM     33  O   UNL d   1      44.656  -9.013   2.935  0.00  0.00    -0.266 OA
ATOM     34  C   UNL d   1      46.269  -9.124   1.148  0.00  0.00     0.126 C 
ENDBRANCH  31  32
ENDBRANCH  30  31
ENDBRANCH   8  30
TORSDOF 10
ENDMDL
