MODEL 1
REMARK VINA RESULT:      -7.1      0.000      0.000
REMARK  10 active torsions:
REMARK  status: ('A' for Active; 'I' for Inactive)
REMARK    1  A    between atoms: O_4  and  C_21 
REMARK    2  A    between atoms: O_4  and  C_26 
REMARK    3  A    between atoms: O_5  and  C_22 
REMARK    4  A    between atoms: O_8  and  N_12 
REMARK    5  A    between atoms: CA_16  and  N_11 
REMARK       I    between atoms: N_11  and  C_23 
REMARK    6  A    between atoms: N_14  and  C_29 
REMARK    7  A    between atoms: CA_18  and  C_22 
REMARK    8  A    between atoms: C_19  and  C_21 
REMARK    9  A    between atoms: C_23  and  C_24 
REMARK   10  A    between atoms: C_24  and  C_25 
ROOT
ATOM      1  S   UNL d   1      38.321 -10.849  -3.885  0.00  0.00    -0.136 SA
ATOM      2  O   UNL d   1      40.021  -8.684  -0.774  0.00  0.00    -0.271 OA
ATOM      3  N   UNL d   1      38.939  -8.474  -2.826  0.00  0.00    -0.293 N 
ATOM      4  C   UNL d   1      39.366  -9.358  -3.910  0.00  0.00     0.187 C 
ATOM      5  CA  UNL d   1      40.738  -9.453  -3.161  0.00  0.00     0.211 C 
ATOM      6  C   UNL d   1      39.925  -8.860  -1.969  0.00  0.00     0.251 C 
ATOM      7  CA  UNL d   1      37.629  -8.126  -2.600  0.00  0.00     0.117 C 
ATOM      8  C   UNL d   1      36.611  -8.751  -3.248  0.00  0.00    -0.013 C 
ATOM      9  C   UNL d   1      36.804  -9.913  -4.202  0.00  0.00     0.115 C 
ENDROOT
BRANCH   5  10
ATOM     10  N   UNL d   1      41.375 -10.798  -3.114  0.00  0.00    -0.339 N 
ATOM     11  C   UNL d   1      42.758 -10.880  -3.270  0.00  0.00     0.275 C 
ATOM     12  O   UNL d   1      43.344 -11.961  -3.255  0.00  0.00    -0.266 OA
ATOM     13  H   UNL d   1      40.904 -11.600  -2.692  0.00  0.00     0.163 HD
BRANCH  11  14
ATOM     14  C   UNL d   1      43.515  -9.567  -3.526  0.00  0.00     0.180 C 
ATOM     15  N   UNL d   1      43.646  -8.993  -4.691  0.00  0.00    -0.126 NA
BRANCH  15  16
ATOM     16  O   UNL d   1      43.025  -9.669  -5.742  0.00  0.00    -0.261 OA
ATOM     17  C   UNL d   1      42.300  -8.702  -6.500  0.00  0.00     0.240 C 
ENDBRANCH  15  16
BRANCH  14  18
ATOM     18  C   UNL d   1      44.170  -8.854  -2.429  0.00  0.00     0.102 A 
ATOM     19  N   UNL d   1      43.663  -7.664  -1.913  0.00  0.00    -0.222 NA
ATOM     20  C   UNL d   1      44.386  -7.272  -0.894  0.00  0.00     0.164 A 
ATOM     21  S   UNL d   1      45.729  -8.263  -0.504  0.00  0.00    -0.062 SA
ATOM     22  C   UNL d   1      45.311  -9.311  -1.785  0.00  0.00     0.087 A 
BRANCH  20  23
ATOM     23  N   UNL d   1      44.112  -6.173  -0.180  0.00  0.00    -0.378 N 
ATOM     24  H   UNL d   1      44.655  -5.991   0.654  0.00  0.00     0.158 HD
ATOM     25  H   UNL d   1      43.822  -5.347  -0.688  0.00  0.00     0.158 HD
ENDBRANCH  20  23
ENDBRANCH  14  18
ENDBRANCH  11  14
ENDBRANCH   5  10
BRANCH   7  26
ATOM     26  C   UNL d   1      37.353  -6.929  -1.718  0.00  0.00     0.194 C 
ATOM     27  OXT UNL d   1      36.961  -7.025  -0.561  0.00  0.00    -0.645 OA
BRANCH  26  28
ATOM     28  O   UNL d   1      37.459  -5.728  -2.316  0.00  0.00    -0.772 OA
ATOM     29  H   UNL d   1      37.730  -5.740  -3.260  0.00  0.00     0.167 HD
ENDBRANCH  26  28
ENDBRANCH   7  26
BRANCH   8  30
ATOM     30  C   UNL d   1      35.143  -8.412  -3.051  0.00  0.00     0.216 C 
BRANCH  30  31
ATOM     31  O   UNL d   1      34.710  -7.502  -4.070  0.00  0.00    -0.317 OA
BRANCH  31  32
ATOM     32  C   UNL d   1      33.383  -7.511  -4.360  0.00  0.00     0.255 C 
ATOM     33  O   UNL d   1      32.552  -6.727  -3.921  0.00  0.00    -0.266 OA
ATOM     34  C   UNL d   1      33.076  -8.627  -5.309  0.00  0.00     0.126 C 
ENDBRANCH  31  32
ENDBRANCH  30  31
ENDBRANCH   8  30
TORSDOF 10
ENDMDL
MODEL 2
REMARK VINA RESULT:      -7.0      0.990      1.169
REMARK  10 active torsions:
REMARK  status: ('A' for Active; 'I' for Inactive)
REMARK    1  A    between atoms: O_4  and  C_21 
REMARK    2  A    between atoms: O_4  and  C_26 
REMARK    3  A    between atoms: O_5  and  C_22 
REMARK    4  A    between atoms: O_8  and  N_12 
REMARK    5  A    between atoms: CA_16  and  N_11 
REMARK       I    between atoms: N_11  and  C_23 
REMARK    6  A    between atoms: N_14  and  C_29 
REMARK    7  A    between atoms: CA_18  and  C_22 
REMARK    8  A    between atoms: C_19  and  C_21 
REMARK    9  A    between atoms: C_23  and  C_24 
REMARK   10  A    between atoms: C_24  and  C_25 
ROOT
ATOM      1  S   UNL d   1      38.957  -9.866  -5.093  0.00  0.00    -0.136 SA
ATOM      2  O   UNL d   1      39.066  -9.309  -0.978  0.00  0.00    -0.271 OA
ATOM      3  N   UNL d   1      39.099  -8.187  -3.018  0.00  0.00    -0.293 N 
ATOM      4  C   UNL d   1      39.951  -8.729  -4.075  0.00  0.00     0.187 C 
ATOM      5  CA  UNL d   1      40.797  -9.375  -2.928  0.00  0.00     0.211 C 
ATOM      6  C   UNL d   1      39.542  -9.048  -2.061  0.00  0.00     0.251 C 
ATOM      7  CA  UNL d   1      37.854  -7.649  -3.245  0.00  0.00     0.117 C 
ATOM      8  C   UNL d   1      37.240  -7.775  -4.451  0.00  0.00    -0.013 C 
ATOM      9  C   UNL d   1      37.813  -8.562  -5.613  0.00  0.00     0.115 C 
ENDROOT
BRANCH   5  10
ATOM     10  N   UNL d   1      41.278 -10.765  -3.161  0.00  0.00    -0.339 N 
ATOM     11  C   UNL d   1      42.601 -10.948  -3.559  0.00  0.00     0.275 C 
ATOM     12  O   UNL d   1      43.057 -12.069  -3.781  0.00  0.00    -0.266 OA
ATOM     13  H   UNL d   1      40.791 -11.574  -2.772  0.00  0.00     0.163 HD
BRANCH  11  14
ATOM     14  C   UNL d   1      43.453  -9.686  -3.770  0.00  0.00     0.180 C 
ATOM     15  N   UNL d   1      43.583  -9.052  -4.903  0.00  0.00    -0.126 NA
BRANCH  15  16
ATOM     16  O   UNL d   1      42.865  -9.607  -5.963  0.00  0.00    -0.261 OA
ATOM     17  C   UNL d   1      42.564  -8.551  -6.874  0.00  0.00     0.240 C 
ENDBRANCH  15  16
BRANCH  14  18
ATOM     18  C   UNL d   1      44.210  -9.100  -2.663  0.00  0.00     0.102 A 
ATOM     19  N   UNL d   1      43.939  -7.823  -2.178  0.00  0.00    -0.222 NA
ATOM     20  C   UNL d   1      44.699  -7.565  -1.143  0.00  0.00     0.164 A 
ATOM     21  S   UNL d   1      45.805  -8.799  -0.702  0.00  0.00    -0.062 SA
ATOM     22  C   UNL d   1      45.218  -9.764  -1.981  0.00  0.00     0.087 A 
BRANCH  20  23
ATOM     23  N   UNL d   1      44.633  -6.421  -0.451  0.00  0.00    -0.378 N 
ATOM     24  H   UNL d   1      43.822  -6.254   0.131  0.00  0.00     0.158 HD
ATOM     25  H   UNL d   1      45.502  -6.044  -0.090  0.00  0.00     0.158 HD
ENDBRANCH  20  23
ENDBRANCH  14  18
ENDBRANCH  11  14
ENDBRANCH   5  10
BRANCH   7  26
ATOM     26  C   UNL d   1      37.244  -6.787  -2.163  0.00  0.00     0.194 C 
ATOM     27  OXT UNL d   1      37.486  -5.592  -2.042  0.00  0.00    -0.645 OA
BRANCH  26  28
ATOM     28  O   UNL d   1      36.489  -7.436  -1.257  0.00  0.00    -0.772 OA
ATOM     29  H   UNL d   1      35.517  -7.340  -1.360  0.00  0.00     0.167 HD
ENDBRANCH  26  28
ENDBRANCH   7  26
BRANCH   8  30
ATOM     30  C   UNL d   1      35.871  -7.200  -4.771  0.00  0.00     0.216 C 
BRANCH  30  31
ATOM     31  O   UNL d   1      34.894  -8.248  -4.798  0.00  0.00    -0.317 OA
BRANCH  31  32
ATOM     32  C   UNL d   1      33.925  -8.191  -3.847  0.00  0.00     0.255 C 
ATOM     33  O   UNL d   1      34.096  -8.347  -2.646  0.00  0.00    -0.266 OA
ATOM     34  C   UNL d   1      32.602  -7.901  -4.484  0.00  0.00     0.126 C 
ENDBRANCH  31  32
ENDBRANCH  30  31
ENDBRANCH   8  30
TORSDOF 10
ENDMDL
MODEL 3
REMARK VINA RESULT:      -6.7      1.804      2.962
REMARK  10 active torsions:
REMARK  status: ('A' for Active; 'I' for Inactive)
REMARK    1  A    between atoms: O_4  and  C_21 
REMARK    2  A    between atoms: O_4  and  C_26 
REMARK    3  A    between atoms: O_5  and  C_22 
REMARK    4  A    between atoms: O_8  and  N_12 
REMARK    5  A    between atoms: CA_16  and  N_11 
REMARK       I    between atoms: N_11  and  C_23 
REMARK    6  A    between atoms: N_14  and  C_29 
REMARK    7  A    between atoms: CA_18  and  C_22 
REMARK    8  A    between atoms: C_19  and  C_21 
REMARK    9  A    between atoms: C_23  and  C_24 
REMARK   10  A    between atoms: C_24  and  C_25 
ROOT
ATOM      1  S   UNL d   1      38.468 -10.846  -3.727  0.00  0.00    -0.136 SA
ATOM      2  O   UNL d   1      40.012  -8.448  -0.707  0.00  0.00    -0.271 OA
ATOM      3  N   UNL d   1      38.968  -8.394  -2.788  0.00  0.00    -0.293 N 
ATOM      4  C   UNL d   1      39.454  -9.317  -3.813  0.00  0.00     0.187 C 
ATOM      5  CA  UNL d   1      40.812  -9.315  -3.034  0.00  0.00     0.211 C 
ATOM      6  C   UNL d   1      39.950  -8.692  -1.892  0.00  0.00     0.251 C 
ATOM      7  CA  UNL d   1      37.641  -8.088  -2.607  0.00  0.00     0.117 C 
ATOM      8  C   UNL d   1      36.663  -8.788  -3.240  0.00  0.00    -0.013 C 
ATOM      9  C   UNL d   1      36.923  -9.991  -4.125  0.00  0.00     0.115 C 
ENDROOT
BRANCH   5  10
ATOM     10  N   UNL d   1      41.501 -10.628  -2.900  0.00  0.00    -0.339 N 
ATOM     11  C   UNL d   1      42.856 -10.699  -3.220  0.00  0.00     0.275 C 
ATOM     12  O   UNL d   1      43.480 -11.756  -3.144  0.00  0.00    -0.266 OA
ATOM     13  H   UNL d   1      41.116 -11.380  -2.325  0.00  0.00     0.163 HD
BRANCH  11  14
ATOM     14  C   UNL d   1      43.525  -9.413  -3.732  0.00  0.00     0.180 C 
ATOM     15  N   UNL d   1      43.936  -8.432  -2.976  0.00  0.00    -0.126 NA
BRANCH  15  16
ATOM     16  O   UNL d   1      43.728  -8.626  -1.609  0.00  0.00    -0.261 OA
ATOM     17  C   UNL d   1      43.432  -7.353  -1.038  0.00  0.00     0.240 C 
ENDBRANCH  15  16
BRANCH  14  18
ATOM     18  C   UNL d   1      43.744  -9.202  -5.163  0.00  0.00     0.102 A 
ATOM     19  N   UNL d   1      42.747  -8.700  -5.996  0.00  0.00    -0.222 NA
ATOM     20  C   UNL d   1      43.216  -8.534  -7.208  0.00  0.00     0.164 A 
ATOM     21  S   UNL d   1      44.850  -8.993  -7.446  0.00  0.00    -0.062 SA
ATOM     22  C   UNL d   1      44.952  -9.436  -5.801  0.00  0.00     0.087 A 
BRANCH  20  23
ATOM     23  N   UNL d   1      42.489  -8.033  -8.214  0.00  0.00    -0.378 N 
ATOM     24  H   UNL d   1      42.498  -7.032  -8.365  0.00  0.00     0.158 HD
ATOM     25  H   UNL d   1      42.411  -8.590  -9.056  0.00  0.00     0.158 HD
ENDBRANCH  20  23
ENDBRANCH  14  18
ENDBRANCH  11  14
ENDBRANCH   5  10
BRANCH   7  26
ATOM     26  C   UNL d   1      37.298  -6.857  -1.798  0.00  0.00     0.194 C 
ATOM     27  OXT UNL d   1      36.911  -6.905  -0.637  0.00  0.00    -0.645 OA
BRANCH  26  28
ATOM     28  O   UNL d   1      37.338  -5.690  -2.467  0.00  0.00    -0.772 OA
ATOM     29  H   UNL d   1      38.206  -5.231  -2.479  0.00  0.00     0.167 HD
ENDBRANCH  26  28
ENDBRANCH   7  26
BRANCH   8  30
ATOM     30  C   UNL d   1      35.179  -8.499  -3.091  0.00  0.00     0.216 C 
BRANCH  30  31
ATOM     31  O   UNL d   1      34.536  -8.563  -4.370  0.00  0.00    -0.317 OA
BRANCH  31  32
ATOM     32  C   UNL d   1      33.323  -7.959  -4.465  0.00  0.00     0.255 C 
ATOM     33  O   UNL d   1      32.993  -6.931  -3.891  0.00  0.00    -0.266 OA
ATOM     34  C   UNL d   1      32.437  -8.736  -5.388  0.00  0.00     0.126 C 
ENDBRANCH  31  32
ENDBRANCH  30  31
ENDBRANCH   8  30
TORSDOF 10
ENDMDL
MODEL 4
REMARK VINA RESULT:      -6.7      3.477      5.180
REMARK  10 active torsions:
REMARK  status: ('A' for Active; 'I' for Inactive)
REMARK    1  A    between atoms: O_4  and  C_21 
REMARK    2  A    between atoms: O_4  and  C_26 
REMARK    3  A    between atoms: O_5  and  C_22 
REMARK    4  A    between atoms: O_8  and  N_12 
REMARK    5  A    between atoms: CA_16  and  N_11 
REMARK       I    between atoms: N_11  and  C_23 
REMARK    6  A    between atoms: N_14  and  C_29 
REMARK    7  A    between atoms: CA_18  and  C_22 
REMARK    8  A    between atoms: C_19  and  C_21 
REMARK    9  A    between atoms: C_23  and  C_24 
REMARK   10  A    between atoms: C_24  and  C_25 
ROOT
ATOM      1  S   UNL d   1      38.414  -8.546  -3.992  0.00  0.00    -0.136 SA
ATOM      2  O   UNL d   1      42.234  -9.242  -2.516  0.00  0.00    -0.271 OA
ATOM      3  N   UNL d   1      40.722  -7.561  -3.072  0.00  0.00    -0.293 N 
ATOM      4  C   UNL d   1      39.990  -7.698  -4.331  0.00  0.00     0.187 C 
ATOM      5  CA  UNL d   1      41.178  -8.596  -4.812  0.00  0.00     0.211 C 
ATOM      6  C   UNL d   1      41.529  -8.635  -3.293  0.00  0.00     0.251 C 
ATOM      7  CA  UNL d   1      40.163  -7.071  -1.917  0.00  0.00     0.117 C 
ATOM      8  C   UNL d   1      38.823  -6.873  -1.809  0.00  0.00    -0.013 C 
ATOM      9  C   UNL d   1      37.826  -7.232  -2.894  0.00  0.00     0.115 C 
ENDROOT
BRANCH   5  10
ATOM     10  N   UNL d   1      40.816  -9.814  -5.589  0.00  0.00    -0.339 N 
ATOM     11  C   UNL d   1      41.003  -9.795  -6.970  0.00  0.00     0.275 C 
ATOM     12  O   UNL d   1      40.711 -10.763  -7.671  0.00  0.00    -0.266 OA
ATOM     13  H   UNL d   1      40.723 -10.727  -5.142  0.00  0.00     0.163 HD
BRANCH  11  14
ATOM     14  C   UNL d   1      41.530  -8.492  -7.591  0.00  0.00     0.180 C 
ATOM     15  N   UNL d   1      40.792  -7.465  -7.913  0.00  0.00    -0.126 NA
BRANCH  15  16
ATOM     16  O   UNL d   1      39.431  -7.621  -7.644  0.00  0.00    -0.261 OA
ATOM     17  C   UNL d   1      38.714  -6.884  -8.632  0.00  0.00     0.240 C 
ENDBRANCH  15  16
BRANCH  14  18
ATOM     18  C   UNL d   1      42.954  -8.322  -7.879  0.00  0.00     0.102 A 
ATOM     19  N   UNL d   1      43.601  -7.100  -7.710  0.00  0.00    -0.222 NA
ATOM     20  C   UNL d   1      44.880  -7.231  -7.960  0.00  0.00     0.164 A 
ATOM     21  S   UNL d   1      45.391  -8.794  -8.445  0.00  0.00    -0.062 SA
ATOM     22  C   UNL d   1      43.785  -9.351  -8.296  0.00  0.00     0.087 A 
BRANCH  20  23
ATOM     23  N   UNL d   1      45.756  -6.225  -7.847  0.00  0.00    -0.378 N 
ATOM     24  H   UNL d   1      46.733  -6.449  -7.703  0.00  0.00     0.158 HD
ATOM     25  H   UNL d   1      45.587  -5.394  -8.400  0.00  0.00     0.158 HD
ENDBRANCH  20  23
ENDBRANCH  14  18
ENDBRANCH  11  14
ENDBRANCH   5  10
BRANCH   7  26
ATOM     26  C   UNL d   1      41.093  -6.619  -0.813  0.00  0.00     0.194 C 
ATOM     27  OXT UNL d   1      41.425  -5.451  -0.654  0.00  0.00    -0.645 OA
BRANCH  26  28
ATOM     28  O   UNL d   1      41.630  -7.600  -0.065  0.00  0.00    -0.772 OA
ATOM     29  H   UNL d   1      41.102  -8.424   0.007  0.00  0.00     0.167 HD
ENDBRANCH  26  28
ENDBRANCH   7  26
BRANCH   8  30
ATOM     30  C   UNL d   1      38.141  -6.329  -0.566  0.00  0.00     0.216 C 
BRANCH  30  31
ATOM     31  O   UNL d   1      37.691  -7.411   0.259  0.00  0.00    -0.317 OA
BRANCH  31  32
ATOM     32  C   UNL d   1      38.337  -7.573   1.443  0.00  0.00     0.255 C 
ATOM     33  O   UNL d   1      39.254  -6.876   1.855  0.00  0.00    -0.266 OA
ATOM     34  C   UNL d   1      37.756  -8.735   2.186  0.00  0.00     0.126 C 
ENDBRANCH  31  32
ENDBRANCH  30  31
ENDBRANCH   8  30
TORSDOF 10
ENDMDL
MODEL 5
REMARK VINA RESULT:      -6.5      3.077      7.712
REMARK  10 active torsions:
REMARK  status: ('A' for Active; 'I' for Inactive)
REMARK    1  A    between atoms: O_4  and  C_21 
REMARK    2  A    between atoms: O_4  and  C_26 
REMARK    3  A    between atoms: O_5  and  C_22 
REMARK    4  A    between atoms: O_8  and  N_12 
REMARK    5  A    between atoms: CA_16  and  N_11 
REMARK       I    between atoms: N_11  and  C_23 
REMARK    6  A    between atoms: N_14  and  C_29 
REMARK    7  A    between atoms: CA_18  and  C_22 
REMARK    8  A    between atoms: C_19  and  C_21 
REMARK    9  A    between atoms: C_23  and  C_24 
REMARK   10  A    between atoms: C_24  and  C_25 
ROOT
ATOM      1  S   UNL d   1      39.858  -7.479  -7.233  0.00  0.00    -0.136 SA
ATOM      2  O   UNL d   1      40.798  -7.535  -3.187  0.00  0.00    -0.271 OA
ATOM      3  N   UNL d   1      40.727  -8.849  -5.108  0.00  0.00    -0.293 N 
ATOM      4  C   UNL d   1      39.542  -8.741  -5.958  0.00  0.00     0.187 C 
ATOM      5  CA  UNL d   1      38.784  -8.264  -4.674  0.00  0.00     0.211 C 
ATOM      6  C   UNL d   1      40.226  -8.064  -4.114  0.00  0.00     0.251 C 
ATOM      7  CA  UNL d   1      42.004  -8.984  -5.597  0.00  0.00     0.117 C 
ATOM      8  C   UNL d   1      42.275  -8.817  -6.919  0.00  0.00    -0.013 C 
ATOM      9  C   UNL d   1      41.242  -8.403  -7.947  0.00  0.00     0.115 C 
ENDROOT
BRANCH   5  10
ATOM     10  N   UNL d   1      37.823  -7.140  -4.851  0.00  0.00    -0.339 N 
ATOM     11  C   UNL d   1      36.755  -7.038  -3.962  0.00  0.00     0.275 C 
ATOM     12  O   UNL d   1      35.919  -6.141  -4.061  0.00  0.00    -0.266 OA
ATOM     13  H   UNL d   1      38.067  -6.305  -5.387  0.00  0.00     0.163 HD
BRANCH  11  14
ATOM     14  C   UNL d   1      36.629  -8.129  -2.887  0.00  0.00     0.180 C 
ATOM     15  N   UNL d   1      36.000  -9.262  -3.042  0.00  0.00    -0.126 NA
BRANCH  15  16
ATOM     16  O   UNL d   1      35.426  -9.439  -4.301  0.00  0.00    -0.261 OA
ATOM     17  C   UNL d   1      34.026  -9.193  -4.170  0.00  0.00     0.240 C 
ENDBRANCH  15  16
BRANCH  14  18
ATOM     18  C   UNL d   1      37.226  -7.950  -1.563  0.00  0.00     0.102 A 
ATOM     19  N   UNL d   1      36.867  -6.895  -0.728  0.00  0.00    -0.222 NA
ATOM     20  C   UNL d   1      37.486  -7.002   0.422  0.00  0.00     0.164 A 
ATOM     21  S   UNL d   1      38.555  -8.333   0.574  0.00  0.00    -0.062 SA
ATOM     22  C   UNL d   1      38.156  -8.819  -1.012  0.00  0.00     0.087 A 
BRANCH  20  23
ATOM     23  N   UNL d   1      37.307  -6.144   1.434  0.00  0.00    -0.378 N 
ATOM     24  H   UNL d   1      36.680  -5.362   1.300  0.00  0.00     0.158 HD
ATOM     25  H   UNL d   1      37.321  -6.523   2.374  0.00  0.00     0.158 HD
ENDBRANCH  20  23
ENDBRANCH  14  18
ENDBRANCH  11  14
ENDBRANCH   5  10
BRANCH   7  26
ATOM     26  C   UNL d   1      43.081  -9.468  -4.652  0.00  0.00     0.194 C 
ATOM     27  OXT UNL d   1      43.292 -10.653  -4.427  0.00  0.00    -0.645 OA
BRANCH  26  28
ATOM     28  O   UNL d   1      43.736  -8.507  -3.975  0.00  0.00    -0.772 OA
ATOM     29  H   UNL d   1      44.199  -8.795  -3.158  0.00  0.00     0.167 HD
ENDBRANCH  26  28
ENDBRANCH   7  26
BRANCH   8  30
ATOM     30  C   UNL d   1      43.660  -8.959  -7.526  0.00  0.00     0.216 C 
BRANCH  30  31
ATOM     31  O   UNL d   1      44.420  -7.765  -7.298  0.00  0.00    -0.317 OA
BRANCH  31  32
ATOM     32  C   UNL d   1      45.705  -7.938  -6.893  0.00  0.00     0.255 C 
ATOM     33  O   UNL d   1      46.139  -7.690  -5.777  0.00  0.00    -0.266 OA
ATOM     34  C   UNL d   1      46.525  -8.489  -8.018  0.00  0.00     0.126 C 
ENDBRANCH  31  32
ENDBRANCH  30  31
ENDBRANCH   8  30
TORSDOF 10
ENDMDL
MODEL 6
REMARK VINA RESULT:      -6.5      3.258      8.066
REMARK  10 active torsions:
REMARK  status: ('A' for Active; 'I' for Inactive)
REMARK    1  A    between atoms: O_4  and  C_21 
REMARK    2  A    between atoms: O_4  and  C_26 
REMARK    3  A    between atoms: O_5  and  C_22 
REMARK    4  A    between atoms: O_8  and  N_12 
REMARK    5  A    between atoms: CA_16  and  N_11 
REMARK       I    between atoms: N_11  and  C_23 
REMARK    6  A    between atoms: N_14  and  C_29 
REMARK    7  A    between atoms: CA_18  and  C_22 
REMARK    8  A    between atoms: C_19  and  C_21 
REMARK    9  A    between atoms: C_23  and  C_24 
REMARK   10  A    between atoms: C_24  and  C_25 
ROOT
ATOM      1  S   UNL d   1      40.282  -6.871  -0.623  0.00  0.00    -0.136 SA
ATOM      2  O   UNL d   1      41.172 -10.379  -2.661  0.00  0.00    -0.271 OA
ATOM      3  N   UNL d   1      41.615  -8.094  -2.591  0.00  0.00    -0.293 N 
ATOM      4  C   UNL d   1      40.481  -7.190  -2.405  0.00  0.00     0.187 C 
ATOM      5  CA  UNL d   1      39.598  -8.330  -3.014  0.00  0.00     0.211 C 
ATOM      6  C   UNL d   1      40.850  -9.213  -2.720  0.00  0.00     0.251 C 
ATOM      7  CA  UNL d   1      42.845  -7.902  -2.007  0.00  0.00     0.117 C 
ATOM      8  C   UNL d   1      43.029  -6.961  -1.044  0.00  0.00    -0.013 C 
ATOM      9  C   UNL d   1      41.916  -6.103  -0.476  0.00  0.00     0.115 C 
ENDROOT
BRANCH   5  10
ATOM     10  N   UNL d   1      38.276  -8.562  -2.368  0.00  0.00    -0.339 N 
ATOM     11  C   UNL d   1      37.230  -9.040  -3.156  0.00  0.00     0.275 C 
ATOM     12  O   UNL d   1      36.111  -9.239  -2.686  0.00  0.00    -0.266 OA
ATOM     13  H   UNL d   1      38.185  -8.666  -1.356  0.00  0.00     0.163 HD
BRANCH  11  14
ATOM     14  C   UNL d   1      37.516  -9.250  -4.651  0.00  0.00     0.180 C 
ATOM     15  N   UNL d   1      38.051 -10.322  -5.167  0.00  0.00    -0.126 NA
BRANCH  15  16
ATOM     16  O   UNL d   1      38.361 -11.319  -4.241  0.00  0.00    -0.261 OA
ATOM     17  C   UNL d   1      39.422 -12.098  -4.791  0.00  0.00     0.240 C 
ENDBRANCH  15  16
BRANCH  14  18
ATOM     18  C   UNL d   1      37.196  -8.208  -5.628  0.00  0.00     0.102 A 
ATOM     19  N   UNL d   1      38.103  -7.812  -6.608  0.00  0.00    -0.222 NA
ATOM     20  C   UNL d   1      37.550  -6.924  -7.398  0.00  0.00     0.164 A 
ATOM     21  S   UNL d   1      35.941  -6.478  -7.011  0.00  0.00    -0.062 SA
ATOM     22  C   UNL d   1      35.971  -7.562  -5.693  0.00  0.00     0.087 A 
BRANCH  20  23
ATOM     23  N   UNL d   1      38.178  -6.389  -8.452  0.00  0.00    -0.378 N 
ATOM     24  H   UNL d   1      38.298  -6.956  -9.282  0.00  0.00     0.158 HD
ATOM     25  H   UNL d   1      38.035  -5.402  -8.628  0.00  0.00     0.158 HD
ENDBRANCH  20  23
ENDBRANCH  14  18
ENDBRANCH  11  14
ENDBRANCH   5  10
BRANCH   7  26
ATOM     26  C   UNL d   1      44.025  -8.664  -2.567  0.00  0.00     0.194 C 
ATOM     27  OXT UNL d   1      44.690  -8.267  -3.515  0.00  0.00    -0.645 OA
BRANCH  26  28
ATOM     28  O   UNL d   1      44.244  -9.877  -2.026  0.00  0.00    -0.772 OA
ATOM     29  H   UNL d   1      44.774 -10.500  -2.569  0.00  0.00     0.167 HD
ENDBRANCH  26  28
ENDBRANCH   7  26
BRANCH   8  30
ATOM     30  C   UNL d   1      44.361  -6.690  -0.364  0.00  0.00     0.216 C 
BRANCH  30  31
ATOM     31  O   UNL d   1      44.459  -7.457   0.843  0.00  0.00    -0.317 OA
BRANCH  31  32
ATOM     32  C   UNL d   1      45.421  -8.416   0.869  0.00  0.00     0.255 C 
ATOM     33  O   UNL d   1      46.245  -8.623  -0.011  0.00  0.00    -0.266 OA
ATOM     34  C   UNL d   1      45.334  -9.190   2.148  0.00  0.00     0.126 C 
ENDBRANCH  31  32
ENDBRANCH  30  31
ENDBRANCH   8  30
TORSDOF 10
ENDMDL
MODEL 7
REMARK VINA RESULT:      -6.5      2.712      4.109
REMARK  10 active torsions:
REMARK  status: ('A' for Active; 'I' for Inactive)
REMARK    1  A    between atoms: O_4  and  C_21 
REMARK    2  A    between atoms: O_4  and  C_26 
REMARK    3  A    between atoms: O_5  and  C_22 
REMARK    4  A    between atoms: O_8  and  N_12 
REMARK    5  A    between atoms: CA_16  and  N_11 
REMARK       I    between atoms: N_11  and  C_23 
REMARK    6  A    between atoms: N_14  and  C_29 
REMARK    7  A    between atoms: CA_18  and  C_22 
REMARK    8  A    between atoms: C_19  and  C_21 
REMARK    9  A    between atoms: C_23  and  C_24 
REMARK   10  A    between atoms: C_24  and  C_25 
ROOT
ATOM      1  S   UNL d   1      39.455  -6.906  -0.747  0.00  0.00    -0.136 SA
ATOM      2  O   UNL d   1      41.430  -7.187  -4.391  0.00  0.00    -0.271 OA
ATOM      3  N   UNL d   1      40.169  -8.394  -2.849  0.00  0.00    -0.293 N 
ATOM      4  C   UNL d   1      40.496  -8.233  -1.433  0.00  0.00     0.187 C 
ATOM      5  CA  UNL d   1      41.929  -7.822  -1.911  0.00  0.00     0.211 C 
ATOM      6  C   UNL d   1      41.227  -7.662  -3.295  0.00  0.00     0.251 C 
ATOM      7  CA  UNL d   1      38.885  -8.511  -3.325  0.00  0.00     0.117 C 
ATOM      8  C   UNL d   1      37.812  -8.274  -2.525  0.00  0.00    -0.013 C 
ATOM      9  C   UNL d   1      37.917  -7.798  -1.090  0.00  0.00     0.115 C 
ENDROOT
BRANCH   5  10
ATOM     10  N   UNL d   1      42.566  -6.684  -1.192  0.00  0.00    -0.339 N 
ATOM     11  C   UNL d   1      43.864  -6.849  -0.713  0.00  0.00     0.275 C 
ATOM     12  O   UNL d   1      44.442  -5.953  -0.099  0.00  0.00    -0.266 OA
ATOM     13  H   UNL d   1      42.222  -5.727  -1.290  0.00  0.00     0.163 HD
BRANCH  11  14
ATOM     14  C   UNL d   1      44.524  -8.220  -0.929  0.00  0.00     0.180 C 
ATOM     15  N   UNL d   1      44.814  -9.068   0.020  0.00  0.00    -0.126 NA
BRANCH  15  16
ATOM     16  O   UNL d   1      44.469  -8.643   1.303  0.00  0.00    -0.261 OA
ATOM     17  C   UNL d   1      45.555  -8.971   2.167  0.00  0.00     0.240 C 
ENDBRANCH  15  16
BRANCH  14  18
ATOM     18  C   UNL d   1      44.891  -8.672  -2.271  0.00  0.00     0.102 A 
ATOM     19  N   UNL d   1      45.580  -7.854  -3.163  0.00  0.00    -0.222 NA
ATOM     20  C   UNL d   1      45.851  -8.515  -4.261  0.00  0.00     0.164 A 
ATOM     21  S   UNL d   1      45.280 -10.130  -4.322  0.00  0.00    -0.062 SA
ATOM     22  C   UNL d   1      44.629  -9.945  -2.755  0.00  0.00     0.087 A 
BRANCH  20  23
ATOM     23  N   UNL d   1      46.537  -7.989  -5.283  0.00  0.00    -0.378 N 
ATOM     24  H   UNL d   1      46.022  -7.617  -6.071  0.00  0.00     0.158 HD
ATOM     25  H   UNL d   1      47.395  -7.496  -5.065  0.00  0.00     0.158 HD
ENDBRANCH  20  23
ENDBRANCH  14  18
ENDBRANCH  11  14
ENDBRANCH   5  10
BRANCH   7  26
ATOM     26  C   UNL d   1      38.691  -9.051  -4.724  0.00  0.00     0.194 C 
ATOM     27  OXT UNL d   1      38.595 -10.246  -4.973  0.00  0.00    -0.645 OA
BRANCH  26  28
ATOM     28  O   UNL d   1      38.738  -8.139  -5.713  0.00  0.00    -0.772 OA
ATOM     29  H   UNL d   1      38.616  -8.486  -6.624  0.00  0.00     0.167 HD
ENDBRANCH  26  28
ENDBRANCH   7  26
BRANCH   8  30
ATOM     30  C   UNL d   1      36.368  -8.391  -2.983  0.00  0.00     0.216 C 
BRANCH  30  31
ATOM     31  O   UNL d   1      35.993  -7.223  -3.723  0.00  0.00    -0.317 OA
BRANCH  31  32
ATOM     32  C   UNL d   1      34.838  -7.306  -4.434  0.00  0.00     0.255 C 
ATOM     33  O   UNL d   1      33.716  -7.420  -3.960  0.00  0.00    -0.266 OA
ATOM     34  C   UNL d   1      35.136  -7.232  -5.900  0.00  0.00     0.126 C 
ENDBRANCH  31  32
ENDBRANCH  30  31
ENDBRANCH   8  30
TORSDOF 10
ENDMDL
MODEL 8
REMARK VINA RESULT:      -6.1      3.223      8.130
REMARK  10 active torsions:
REMARK  status: ('A' for Active; 'I' for Inactive)
REMARK    1  A    between atoms: O_4  and  C_21 
REMARK    2  A    between atoms: O_4  and  C_26 
REMARK    3  A    between atoms: O_5  and  C_22 
REMARK    4  A    between atoms: O_8  and  N_12 
REMARK    5  A    between atoms: CA_16  and  N_11 
REMARK       I    between atoms: N_11  and  C_23 
REMARK    6  A    between atoms: N_14  and  C_29 
REMARK    7  A    between atoms: CA_18  and  C_22 
REMARK    8  A    between atoms: C_19  and  C_21 
REMARK    9  A    between atoms: C_23  and  C_24 
REMARK   10  A    between atoms: C_24  and  C_25 
ROOT
ATOM      1  S   UNL d   1      44.702  -9.254  -4.402  0.00  0.00    -0.136 SA
ATOM      2  O   UNL d   1      41.933  -6.829  -2.478  0.00  0.00    -0.271 OA
ATOM      3  N   UNL d   1      43.410  -8.600  -2.155  0.00  0.00    -0.293 N 
ATOM      4  C   UNL d   1      43.429  -9.658  -3.164  0.00  0.00     0.187 C 
ATOM      5  CA  UNL d   1      41.962  -9.227  -3.503  0.00  0.00     0.211 C 
ATOM      6  C   UNL d   1      42.341  -7.949  -2.692  0.00  0.00     0.251 C 
ATOM      7  CA  UNL d   1      44.538  -8.124  -1.531  0.00  0.00     0.117 C 
ATOM      8  C   UNL d   1      45.781  -8.464  -1.964  0.00  0.00    -0.013 C 
ATOM      9  C   UNL d   1      46.045  -9.318  -3.189  0.00  0.00     0.115 C 
ENDROOT
BRANCH   5  10
ATOM     10  N   UNL d   1      41.599  -9.189  -4.947  0.00  0.00    -0.339 N 
ATOM     11  C   UNL d   1      40.341  -9.655  -5.324  0.00  0.00     0.275 C 
ATOM     12  O   UNL d   1      39.985  -9.663  -6.501  0.00  0.00    -0.266 OA
ATOM     13  H   UNL d   1      42.093  -8.588  -5.608  0.00  0.00     0.163 HD
BRANCH  11  14
ATOM     14  C   UNL d   1      39.437 -10.216  -4.214  0.00  0.00     0.180 C 
ATOM     15  N   UNL d   1      39.484 -11.438  -3.758  0.00  0.00    -0.126 NA
BRANCH  15  16
ATOM     16  O   UNL d   1      40.451 -12.244  -4.359  0.00  0.00    -0.261 OA
ATOM     17  C   UNL d   1      41.236 -12.819  -3.316  0.00  0.00     0.240 C 
ENDBRANCH  15  16
BRANCH  14  18
ATOM     18  C   UNL d   1      38.420  -9.377  -3.581  0.00  0.00     0.102 A 
ATOM     19  N   UNL d   1      38.498  -7.986  -3.592  0.00  0.00    -0.222 NA
ATOM     20  C   UNL d   1      37.434  -7.472  -3.028  0.00  0.00     0.164 A 
ATOM     21  S   UNL d   1      36.293  -8.597  -2.419  0.00  0.00    -0.062 SA
ATOM     22  C   UNL d   1      37.285  -9.876  -2.960  0.00  0.00     0.087 A 
BRANCH  20  23
ATOM     23  N   UNL d   1      37.221  -6.154  -2.927  0.00  0.00    -0.378 N 
ATOM     24  H   UNL d   1      36.816  -5.794  -2.073  0.00  0.00     0.158 HD
ATOM     25  H   UNL d   1      37.890  -5.539  -3.374  0.00  0.00     0.158 HD
ENDBRANCH  20  23
ENDBRANCH  14  18
ENDBRANCH  11  14
ENDBRANCH   5  10
BRANCH   7  26
ATOM     26  C   UNL d   1      44.365  -7.326  -0.258  0.00  0.00     0.194 C 
ATOM     27  OXT UNL d   1      44.285  -7.842   0.850  0.00  0.00    -0.645 OA
BRANCH  26  28
ATOM     28  O   UNL d   1      44.191  -6.001  -0.420  0.00  0.00    -0.772 OA
ATOM     29  H   UNL d   1      43.457  -5.733  -1.014  0.00  0.00     0.167 HD
ENDBRANCH  26  28
ENDBRANCH   7  26
BRANCH   8  30
ATOM     30  C   UNL d   1      47.068  -7.981  -1.317  0.00  0.00     0.216 C 
BRANCH  30  31
ATOM     31  O   UNL d   1      47.887  -9.102  -0.959  0.00  0.00    -0.317 OA
BRANCH  31  32
ATOM     32  C   UNL d   1      47.492  -9.812   0.130  0.00  0.00     0.255 C 
ATOM     33  O   UNL d   1      47.192  -9.339   1.218  0.00  0.00    -0.266 OA
ATOM     34  C   UNL d   1      47.468 -11.273  -0.195  0.00  0.00     0.126 C 
ENDBRANCH  31  32
ENDBRANCH  30  31
ENDBRANCH   8  30
TORSDOF 10
ENDMDL
MODEL 9
REMARK VINA RESULT:      -6.1      3.018      7.755
REMARK  10 active torsions:
REMARK  status: ('A' for Active; 'I' for Inactive)
REMARK    1  A    between atoms: O_4  and  C_21 
REMARK    2  A    between atoms: O_4  and  C_26 
REMARK    3  A    between atoms: O_5  and  C_22 
REMARK    4  A    between atoms: O_8  and  N_12 
REMARK    5  A    between atoms: CA_16  and  N_11 
REMARK       I    between atoms: N_11  and  C_23 
REMARK    6  A    between atoms: N_14  and  C_29 
REMARK    7  A    between atoms: CA_18  and  C_22 
REMARK    8  A    between atoms: C_19  and  C_21 
REMARK    9  A    between atoms: C_23  and  C_24 
REMARK   10  A    between atoms: C_24  and  C_25 
ROOT
ATOM      1  S   UNL d   1      41.198 -10.357  -3.464  0.00  0.00    -0.136 SA
ATOM      2  O   UNL d   1      39.552  -9.338  -7.139  0.00  0.00    -0.271 OA
ATOM      3  N   UNL d   1      41.021  -8.615  -5.483  0.00  0.00    -0.293 N 
ATOM      4  C   UNL d   1      40.595  -8.757  -4.091  0.00  0.00     0.187 C 
ATOM      5  CA  UNL d   1      39.128  -8.728  -4.639  0.00  0.00     0.211 C 
ATOM      6  C   UNL d   1      39.824  -8.999  -6.008  0.00  0.00     0.251 C 
ATOM      7  CA  UNL d   1      42.308  -8.832  -5.910  0.00  0.00     0.117 C 
ATOM      8  C   UNL d   1      43.236  -9.401  -5.096  0.00  0.00    -0.013 C 
ATOM      9  C   UNL d   1      42.936  -9.909  -3.699  0.00  0.00     0.115 C 
ENDROOT
BRANCH   5  10
ATOM     10  N   UNL d   1      38.170  -9.683  -4.017  0.00  0.00    -0.339 N 
ATOM     11  C   UNL d   1      37.139  -9.168  -3.233  0.00  0.00     0.275 C 
ATOM     12  O   UNL d   1      36.322  -9.903  -2.681  0.00  0.00    -0.266 OA
ATOM     13  H   UNL d   1      38.060 -10.637  -4.366  0.00  0.00     0.163 HD
BRANCH  11  14
ATOM     14  C   UNL d   1      37.100  -7.644  -3.036  0.00  0.00     0.180 C 
ATOM     15  N   UNL d   1      36.622  -6.790  -3.899  0.00  0.00    -0.126 NA
BRANCH  15  16
ATOM     16  O   UNL d   1      36.118  -7.366  -5.066  0.00  0.00    -0.261 OA
ATOM     17  C   UNL d   1      34.797  -6.861  -5.255  0.00  0.00     0.240 C 
ENDBRANCH  15  16
BRANCH  14  18
ATOM     18  C   UNL d   1      37.628  -7.033  -1.816  0.00  0.00     0.102 A 
ATOM     19  N   UNL d   1      36.858  -6.899  -0.664  0.00  0.00    -0.222 NA
ATOM     20  C   UNL d   1      37.582  -6.394   0.304  0.00  0.00     0.164 A 
ATOM     21  S   UNL d   1      39.205  -6.014  -0.096  0.00  0.00    -0.062 SA
ATOM     22  C   UNL d   1      38.932  -6.579  -1.683  0.00  0.00     0.087 A 
BRANCH  20  23
ATOM     23  N   UNL d   1      37.111  -6.185   1.540  0.00  0.00    -0.378 N 
ATOM     24  H   UNL d   1      36.142  -6.405   1.732  0.00  0.00     0.158 HD
ATOM     25  H   UNL d   1      37.746  -6.345   2.313  0.00  0.00     0.158 HD
ENDBRANCH  20  23
ENDBRANCH  14  18
ENDBRANCH  11  14
ENDBRANCH   5  10
BRANCH   7  26
ATOM     26  C   UNL d   1      42.710  -8.290  -7.263  0.00  0.00     0.194 C 
ATOM     27  OXT UNL d   1      43.155  -7.160  -7.427  0.00  0.00    -0.645 OA
BRANCH  26  28
ATOM     28  O   UNL d   1      42.449  -9.090  -8.313  0.00  0.00    -0.772 OA
ATOM     29  H   UNL d   1      42.154 -10.002  -8.096  0.00  0.00     0.167 HD
ENDBRANCH  26  28
ENDBRANCH   7  26
BRANCH   8  30
ATOM     30  C   UNL d   1      44.676  -9.663  -5.501  0.00  0.00     0.216 C 
BRANCH  30  31
ATOM     31  O   UNL d   1      45.508  -8.572  -5.086  0.00  0.00    -0.317 OA
BRANCH  31  32
ATOM     32  C   UNL d   1      46.261  -7.989  -6.055  0.00  0.00     0.255 C 
ATOM     33  O   UNL d   1      46.671  -6.836  -6.041  0.00  0.00    -0.266 OA
ATOM     34  C   UNL d   1      46.529  -8.970  -7.153  0.00  0.00     0.126 C 
ENDBRANCH  31  32
ENDBRANCH  30  31
ENDBRANCH   8  30
TORSDOF 10
ENDMDL
