MODEL 1
REMARK VINA RESULT:      -6.9      0.000      0.000
REMARK  10 active torsions:
REMARK  status: ('A' for Active; 'I' for Inactive)
REMARK    1  A    between atoms: O_4  and  C_21 
REMARK    2  A    between atoms: O_4  and  C_26 
REMARK    3  A    between atoms: O_5  and  C_22 
REMARK    4  A    between atoms: O_8  and  N_12 
REMARK    5  A    between atoms: CA_16  and  N_11 
REMARK       I    between atoms: N_11  and  C_23 
REMARK    6  A    between atoms: N_14  and  C_29 
REMARK    7  A    between atoms: CA_18  and  C_22 
REMARK    8  A    between atoms: C_19  and  C_21 
REMARK    9  A    between atoms: C_23  and  C_24 
REMARK   10  A    between atoms: C_24  and  C_25 
ROOT
ATOM      1  S   UNL d   1      39.217  -6.857  -0.459  0.00  0.00    -0.136 SA
ATOM      2  O   UNL d   1      41.171  -7.180  -4.103  0.00  0.00    -0.271 OA
ATOM      3  N   UNL d   1      40.018  -8.400  -2.477  0.00  0.00    -0.293 N 
ATOM      4  C   UNL d   1      40.352  -8.136  -1.078  0.00  0.00     0.187 C 
ATOM      5  CA  UNL d   1      41.756  -7.663  -1.612  0.00  0.00     0.211 C 
ATOM      6  C   UNL d   1      41.015  -7.601  -2.971  0.00  0.00     0.251 C 
ATOM      7  CA  UNL d   1      38.748  -8.634  -2.944  0.00  0.00     0.117 C 
ATOM      8  C   UNL d   1      37.659  -8.423  -2.159  0.00  0.00    -0.013 C 
ATOM      9  C   UNL d   1      37.737  -7.876  -0.748  0.00  0.00     0.115 C 
ENDROOT
BRANCH   5  10
ATOM     10  N   UNL d   1      42.399  -6.485  -0.926  0.00  0.00    -0.339 N 
ATOM     11  C   UNL d   1      43.720  -6.662  -0.523  0.00  0.00     0.275 C 
ATOM     12  O   UNL d   1      44.315  -5.752   0.057  0.00  0.00    -0.266 OA
ATOM     13  H   UNL d   1      41.997  -5.551  -0.914  0.00  0.00     0.163 HD
BRANCH  11  14
ATOM     14  C   UNL d   1      44.489  -7.953  -0.795  0.00  0.00     0.180 C 
ATOM     15  N   UNL d   1      44.781  -8.915   0.032  0.00  0.00    -0.126 NA
BRANCH  15  16
ATOM     16  O   UNL d   1      44.324  -8.794   1.341  0.00  0.00    -0.261 OA
ATOM     17  C   UNL d   1      45.479  -8.983   2.183  0.00  0.00     0.240 C 
ENDBRANCH  15  16
BRANCH  14  18
ATOM     18  C   UNL d   1      45.093  -8.109  -2.125  0.00  0.00     0.102 A 
ATOM     19  N   UNL d   1      46.098  -7.255  -2.565  0.00  0.00    -0.222 NA
ATOM     20  C   UNL d   1      46.582  -7.674  -3.706  0.00  0.00     0.164 A 
ATOM     21  S   UNL d   1      45.805  -9.045  -4.381  0.00  0.00    -0.062 SA
ATOM     22  C   UNL d   1      44.774  -9.119  -3.017  0.00  0.00     0.087 A 
BRANCH  20  23
ATOM     23  N   UNL d   1      47.618  -7.086  -4.317  0.00  0.00    -0.378 N 
ATOM     24  H   UNL d   1      48.240  -7.639  -4.890  0.00  0.00     0.158 HD
ATOM     25  H   UNL d   1      47.499  -6.120  -4.596  0.00  0.00     0.158 HD
ENDBRANCH  20  23
ENDBRANCH  14  18
ENDBRANCH  11  14
ENDBRANCH   5  10
BRANCH   7  26
ATOM     26  C   UNL d   1      38.601  -9.279  -4.307  0.00  0.00     0.194 C 
ATOM     27  OXT UNL d   1      38.736 -10.478  -4.503  0.00  0.00    -0.645 OA
BRANCH  26  28
ATOM     28  O   UNL d   1      38.434  -8.426  -5.338  0.00  0.00    -0.772 OA
ATOM     29  H   UNL d   1      37.637  -7.855  -5.292  0.00  0.00     0.167 HD
ENDBRANCH  26  28
ENDBRANCH   7  26
BRANCH   8  30
ATOM     30  C   UNL d   1      36.224  -8.644  -2.617  0.00  0.00     0.216 C 
BRANCH  30  31
ATOM     31  O   UNL d   1      35.826  -7.606  -3.524  0.00  0.00    -0.317 OA
BRANCH  31  32
ATOM     32  C   UNL d   1      34.634  -7.779  -4.153  0.00  0.00     0.255 C 
ATOM     33  O   UNL d   1      33.533  -7.656  -3.635  0.00  0.00    -0.266 OA
ATOM     34  C   UNL d   1      34.859  -8.132  -5.591  0.00  0.00     0.126 C 
ENDBRANCH  31  32
ENDBRANCH  30  31
ENDBRANCH   8  30
TORSDOF 10
ENDMDL
MODEL 2
REMARK VINA RESULT:      -6.9      2.750      4.098
REMARK  10 active torsions:
REMARK  status: ('A' for Active; 'I' for Inactive)
REMARK    1  A    between atoms: O_4  and  C_21 
REMARK    2  A    between atoms: O_4  and  C_26 
REMARK    3  A    between atoms: O_5  and  C_22 
REMARK    4  A    between atoms: O_8  and  N_12 
REMARK    5  A    between atoms: CA_16  and  N_11 
REMARK       I    between atoms: N_11  and  C_23 
REMARK    6  A    between atoms: N_14  and  C_29 
REMARK    7  A    between atoms: CA_18  and  C_22 
REMARK    8  A    between atoms: C_19  and  C_21 
REMARK    9  A    between atoms: C_23  and  C_24 
REMARK   10  A    between atoms: C_24  and  C_25 
ROOT
ATOM      1  S   UNL d   1      38.302 -10.885  -3.813  0.00  0.00    -0.136 SA
ATOM      2  O   UNL d   1      39.897  -8.677  -0.686  0.00  0.00    -0.271 OA
ATOM      3  N   UNL d   1      38.910  -8.499  -2.797  0.00  0.00    -0.293 N 
ATOM      4  C   UNL d   1      39.376  -9.418  -3.835  0.00  0.00     0.187 C 
ATOM      5  CA  UNL d   1      40.721  -9.492  -3.018  0.00  0.00     0.211 C 
ATOM      6  C   UNL d   1      39.852  -8.893  -1.883  0.00  0.00     0.251 C 
ATOM      7  CA  UNL d   1      37.602  -8.120  -2.622  0.00  0.00     0.117 C 
ATOM      8  C   UNL d   1      36.593  -8.748  -3.281  0.00  0.00    -0.013 C 
ATOM      9  C   UNL d   1      36.804  -9.929  -4.207  0.00  0.00     0.115 C 
ENDROOT
BRANCH   5  10
ATOM     10  N   UNL d   1      41.422 -10.824  -2.954  0.00  0.00    -0.339 N 
ATOM     11  C   UNL d   1      42.762 -10.825  -3.337  0.00  0.00     0.275 C 
ATOM     12  O   UNL d   1      43.405 -11.876  -3.326  0.00  0.00    -0.266 OA
ATOM     13  H   UNL d   1      41.038 -11.643  -2.490  0.00  0.00     0.163 HD
BRANCH  11  14
ATOM     14  C   UNL d   1      43.491  -9.551  -3.755  0.00  0.00     0.180 C 
ATOM     15  N   UNL d   1      43.597  -9.026  -4.941  0.00  0.00    -0.126 NA
BRANCH  15  16
ATOM     16  O   UNL d   1      42.949  -9.676  -5.988  0.00  0.00    -0.261 OA
ATOM     17  C   UNL d   1      42.008  -8.724  -6.523  0.00  0.00     0.240 C 
ENDBRANCH  15  16
BRANCH  14  18
ATOM     18  C   UNL d   1      44.285  -8.863  -2.728  0.00  0.00     0.102 A 
ATOM     19  N   UNL d   1      43.808  -7.724  -2.089  0.00  0.00    -0.222 NA
ATOM     20  C   UNL d   1      44.613  -7.378  -1.117  0.00  0.00     0.164 A 
ATOM     21  S   UNL d   1      46.040  -8.317  -0.969  0.00  0.00    -0.062 SA
ATOM     22  C   UNL d   1      45.518  -9.298  -2.270  0.00  0.00     0.087 A 
BRANCH  20  23
ATOM     23  N   UNL d   1      44.353  -6.364  -0.283  0.00  0.00    -0.378 N 
ATOM     24  H   UNL d   1      45.063  -5.667  -0.105  0.00  0.00     0.158 HD
ATOM     25  H   UNL d   1      43.394  -6.042  -0.237  0.00  0.00     0.158 HD
ENDBRANCH  20  23
ENDBRANCH  14  18
ENDBRANCH  11  14
ENDBRANCH   5  10
BRANCH   7  26
ATOM     26  C   UNL d   1      37.326  -6.882  -1.793  0.00  0.00     0.194 C 
ATOM     27  OXT UNL d   1      36.949  -6.920  -0.631  0.00  0.00    -0.645 OA
BRANCH  26  28
ATOM     28  O   UNL d   1      37.399  -5.711  -2.457  0.00  0.00    -0.772 OA
ATOM     29  H   UNL d   1      36.751  -5.595  -3.185  0.00  0.00     0.167 HD
ENDBRANCH  26  28
ENDBRANCH   7  26
BRANCH   8  30
ATOM     30  C   UNL d   1      35.121  -8.392  -3.122  0.00  0.00     0.216 C 
BRANCH  30  31
ATOM     31  O   UNL d   1      34.551  -8.054  -4.395  0.00  0.00    -0.317 OA
BRANCH  31  32
ATOM     32  C   UNL d   1      34.996  -6.906  -4.969  0.00  0.00     0.255 C 
ATOM     33  O   UNL d   1      35.143  -5.836  -4.395  0.00  0.00    -0.266 OA
ATOM     34  C   UNL d   1      35.301  -7.140  -6.416  0.00  0.00     0.126 C 
ENDBRANCH  31  32
ENDBRANCH  30  31
ENDBRANCH   8  30
TORSDOF 10
ENDMDL
MODEL 3
REMARK VINA RESULT:      -6.5      3.735      8.225
REMARK  10 active torsions:
REMARK  status: ('A' for Active; 'I' for Inactive)
REMARK    1  A    between atoms: O_4  and  C_21 
REMARK    2  A    between atoms: O_4  and  C_26 
REMARK    3  A    between atoms: O_5  and  C_22 
REMARK    4  A    between atoms: O_8  and  N_12 
REMARK    5  A    between atoms: CA_16  and  N_11 
REMARK       I    between atoms: N_11  and  C_23 
REMARK    6  A    between atoms: N_14  and  C_29 
REMARK    7  A    between atoms: CA_18  and  C_22 
REMARK    8  A    between atoms: C_19  and  C_21 
REMARK    9  A    between atoms: C_23  and  C_24 
REMARK   10  A    between atoms: C_24  and  C_25 
ROOT
ATOM      1  S   UNL d   1      40.224  -7.484  -7.128  0.00  0.00    -0.136 SA
ATOM      2  O   UNL d   1      41.063  -7.463  -3.067  0.00  0.00    -0.271 OA
ATOM      3  N   UNL d   1      41.013  -8.825  -4.965  0.00  0.00    -0.293 N 
ATOM      4  C   UNL d   1      39.847  -8.712  -5.841  0.00  0.00     0.187 C 
ATOM      5  CA  UNL d   1      39.069  -8.210  -4.565  0.00  0.00     0.211 C 
ATOM      6  C   UNL d   1      40.498  -7.996  -4.004  0.00  0.00     0.251 C 
ATOM      7  CA  UNL d   1      42.304  -8.987  -5.404  0.00  0.00     0.117 C 
ATOM      8  C   UNL d   1      42.625  -8.839  -6.716  0.00  0.00    -0.013 C 
ATOM      9  C   UNL d   1      41.625  -8.442  -7.784  0.00  0.00     0.115 C 
ENDROOT
BRANCH   5  10
ATOM     10  N   UNL d   1      38.047  -7.121  -4.760  0.00  0.00    -0.339 N 
ATOM     11  C   UNL d   1      36.942  -7.165  -3.912  0.00  0.00     0.275 C 
ATOM     12  O   UNL d   1      36.053  -6.319  -4.014  0.00  0.00    -0.266 OA
ATOM     13  H   UNL d   1      38.208  -6.289  -5.322  0.00  0.00     0.163 HD
BRANCH  11  14
ATOM     14  C   UNL d   1      36.792  -8.225  -2.824  0.00  0.00     0.180 C 
ATOM     15  N   UNL d   1      36.105  -9.330  -2.854  0.00  0.00    -0.126 NA
BRANCH  15  16
ATOM     16  O   UNL d   1      35.426  -9.629  -4.032  0.00  0.00    -0.261 OA
ATOM     17  C   UNL d   1      34.038  -9.338  -3.773  0.00  0.00     0.240 C 
ENDBRANCH  15  16
BRANCH  14  18
ATOM     18  C   UNL d   1      37.394  -7.935  -1.515  0.00  0.00     0.102 A 
ATOM     19  N   UNL d   1      36.939  -6.883  -0.729  0.00  0.00    -0.222 NA
ATOM     20  C   UNL d   1      37.516  -6.911   0.445  0.00  0.00     0.164 A 
ATOM     21  S   UNL d   1      38.713  -8.121   0.652  0.00  0.00    -0.062 SA
ATOM     22  C   UNL d   1      38.399  -8.689  -0.931  0.00  0.00     0.087 A 
BRANCH  20  23
ATOM     23  N   UNL d   1      37.202  -6.062   1.430  0.00  0.00    -0.378 N 
ATOM     24  H   UNL d   1      36.573  -5.292   1.246  0.00  0.00     0.158 HD
ATOM     25  H   UNL d   1      37.181  -6.436   2.371  0.00  0.00     0.158 HD
ENDBRANCH  20  23
ENDBRANCH  14  18
ENDBRANCH  11  14
ENDBRANCH   5  10
BRANCH   7  26
ATOM     26  C   UNL d   1      43.334  -9.485  -4.411  0.00  0.00     0.194 C 
ATOM     27  OXT UNL d   1      43.528 -10.669  -4.179  0.00  0.00    -0.645 OA
BRANCH  26  28
ATOM     28  O   UNL d   1      43.952  -8.529  -3.688  0.00  0.00    -0.772 OA
ATOM     29  H   UNL d   1      44.710  -8.832  -3.144  0.00  0.00     0.167 HD
ENDBRANCH  26  28
ENDBRANCH   7  26
BRANCH   8  30
ATOM     30  C   UNL d   1      44.036  -8.987  -7.270  0.00  0.00     0.216 C 
BRANCH  30  31
ATOM     31  O   UNL d   1      44.619  -7.695  -7.494  0.00  0.00    -0.317 OA
BRANCH  31  32
ATOM     32  C   UNL d   1      45.782  -7.438  -6.842  0.00  0.00     0.255 C 
ATOM     33  O   UNL d   1      46.092  -7.875  -5.742  0.00  0.00    -0.266 OA
ATOM     34  C   UNL d   1      46.650  -6.544  -7.673  0.00  0.00     0.126 C 
ENDBRANCH  31  32
ENDBRANCH  30  31
ENDBRANCH   8  30
TORSDOF 10
ENDMDL
MODEL 4
REMARK VINA RESULT:      -6.4      2.748      3.635
REMARK  10 active torsions:
REMARK  status: ('A' for Active; 'I' for Inactive)
REMARK    1  A    between atoms: O_4  and  C_21 
REMARK    2  A    between atoms: O_4  and  C_26 
REMARK    3  A    between atoms: O_5  and  C_22 
REMARK    4  A    between atoms: O_8  and  N_12 
REMARK    5  A    between atoms: CA_16  and  N_11 
REMARK       I    between atoms: N_11  and  C_23 
REMARK    6  A    between atoms: N_14  and  C_29 
REMARK    7  A    between atoms: CA_18  and  C_22 
REMARK    8  A    between atoms: C_19  and  C_21 
REMARK    9  A    between atoms: C_23  and  C_24 
REMARK   10  A    between atoms: C_24  and  C_25 
ROOT
ATOM      1  S   UNL d   1      38.370 -10.824  -3.837  0.00  0.00    -0.136 SA
ATOM      2  O   UNL d   1      39.877  -8.657  -0.638  0.00  0.00    -0.271 OA
ATOM      3  N   UNL d   1      38.934  -8.451  -2.766  0.00  0.00    -0.293 N 
ATOM      4  C   UNL d   1      39.430  -9.346  -3.810  0.00  0.00     0.187 C 
ATOM      5  CA  UNL d   1      40.759  -9.423  -2.965  0.00  0.00     0.211 C 
ATOM      6  C   UNL d   1      39.859  -8.852  -1.839  0.00  0.00     0.251 C 
ATOM      7  CA  UNL d   1      37.618  -8.087  -2.613  0.00  0.00     0.117 C 
ATOM      8  C   UNL d   1      36.630  -8.712  -3.304  0.00  0.00    -0.013 C 
ATOM      9  C   UNL d   1      36.872  -9.875  -4.247  0.00  0.00     0.115 C 
ENDROOT
BRANCH   5  10
ATOM     10  N   UNL d   1      41.471 -10.749  -2.910  0.00  0.00    -0.339 N 
ATOM     11  C   UNL d   1      42.809 -10.737  -3.299  0.00  0.00     0.275 C 
ATOM     12  O   UNL d   1      43.460 -11.783  -3.296  0.00  0.00    -0.266 OA
ATOM     13  H   UNL d   1      41.096 -11.573  -2.447  0.00  0.00     0.163 HD
BRANCH  11  14
ATOM     14  C   UNL d   1      43.525  -9.455  -3.715  0.00  0.00     0.180 C 
ATOM     15  N   UNL d   1      43.941  -8.476  -2.966  0.00  0.00    -0.126 NA
BRANCH  15  16
ATOM     16  O   UNL d   1      43.746  -8.595  -1.592  0.00  0.00    -0.261 OA
ATOM     17  C   UNL d   1      43.241  -7.318  -1.152  0.00  0.00     0.240 C 
ENDBRANCH  15  16
BRANCH  14  18
ATOM     18  C   UNL d   1      43.677  -9.207  -5.156  0.00  0.00     0.102 A 
ATOM     19  N   UNL d   1      44.858  -8.693  -5.678  0.00  0.00    -0.222 NA
ATOM     20  C   UNL d   1      44.816  -8.699  -6.986  0.00  0.00     0.164 A 
ATOM     21  S   UNL d   1      43.333  -9.213  -7.676  0.00  0.00    -0.062 SA
ATOM     22  C   UNL d   1      42.715  -9.503  -6.107  0.00  0.00     0.087 A 
BRANCH  20  23
ATOM     23  N   UNL d   1      45.853  -8.335  -7.749  0.00  0.00    -0.378 N 
ATOM     24  H   UNL d   1      46.013  -7.356  -7.942  0.00  0.00     0.158 HD
ATOM     25  H   UNL d   1      46.679  -8.920  -7.712  0.00  0.00     0.158 HD
ENDBRANCH  20  23
ENDBRANCH  14  18
ENDBRANCH  11  14
ENDBRANCH   5  10
BRANCH   7  26
ATOM     26  C   UNL d   1      37.313  -6.867  -1.767  0.00  0.00     0.194 C 
ATOM     27  OXT UNL d   1      36.911  -6.930  -0.615  0.00  0.00    -0.645 OA
BRANCH  26  28
ATOM     28  O   UNL d   1      37.388  -5.684  -2.409  0.00  0.00    -0.772 OA
ATOM     29  H   UNL d   1      37.919  -5.680  -3.234  0.00  0.00     0.167 HD
ENDBRANCH  26  28
ENDBRANCH   7  26
BRANCH   8  30
ATOM     30  C   UNL d   1      35.151  -8.373  -3.171  0.00  0.00     0.216 C 
BRANCH  30  31
ATOM     31  O   UNL d   1      34.526  -8.361  -4.463  0.00  0.00    -0.317 OA
BRANCH  31  32
ATOM     32  C   UNL d   1      33.261  -7.870  -4.515  0.00  0.00     0.255 C 
ATOM     33  O   UNL d   1      32.869  -6.856  -3.956  0.00  0.00    -0.266 OA
ATOM     34  C   UNL d   1      32.405  -8.748  -5.375  0.00  0.00     0.126 C 
ENDBRANCH  31  32
ENDBRANCH  30  31
ENDBRANCH   8  30
TORSDOF 10
ENDMDL
MODEL 5
REMARK VINA RESULT:      -6.1      3.080      8.020
REMARK  10 active torsions:
REMARK  status: ('A' for Active; 'I' for Inactive)
REMARK    1  A    between atoms: O_4  and  C_21 
REMARK    2  A    between atoms: O_4  and  C_26 
REMARK    3  A    between atoms: O_5  and  C_22 
REMARK    4  A    between atoms: O_8  and  N_12 
REMARK    5  A    between atoms: CA_16  and  N_11 
REMARK       I    between atoms: N_11  and  C_23 
REMARK    6  A    between atoms: N_14  and  C_29 
REMARK    7  A    between atoms: CA_18  and  C_22 
REMARK    8  A    between atoms: C_19  and  C_21 
REMARK    9  A    between atoms: C_23  and  C_24 
REMARK   10  A    between atoms: C_24  and  C_25 
ROOT
ATOM      1  S   UNL d   1      40.658  -7.492  -1.102  0.00  0.00    -0.136 SA
ATOM      2  O   UNL d   1      41.955 -10.723  -3.355  0.00  0.00    -0.271 OA
ATOM      3  N   UNL d   1      42.216  -8.421  -3.053  0.00  0.00    -0.293 N 
ATOM      4  C   UNL d   1      41.001  -7.624  -2.883  0.00  0.00     0.187 C 
ATOM      5  CA  UNL d   1      40.267  -8.768  -3.680  0.00  0.00     0.211 C 
ATOM      6  C   UNL d   1      41.540  -9.579  -3.330  0.00  0.00     0.251 C 
ATOM      7  CA  UNL d   1      43.386  -8.214  -2.364  0.00  0.00     0.117 C 
ATOM      8  C   UNL d   1      43.436  -7.372  -1.299  0.00  0.00    -0.013 C 
ATOM      9  C   UNL d   1      42.227  -6.639  -0.752  0.00  0.00     0.115 C 
ENDROOT
BRANCH   5  10
ATOM     10  N   UNL d   1      38.869  -9.128  -3.248  0.00  0.00    -0.339 N 
ATOM     11  C   UNL d   1      37.991  -9.487  -4.268  0.00  0.00     0.275 C 
ATOM     12  O   UNL d   1      36.825  -9.783  -4.001  0.00  0.00    -0.266 OA
ATOM     13  H   UNL d   1      38.603  -9.296  -2.282  0.00  0.00     0.163 HD
BRANCH  11  14
ATOM     14  C   UNL d   1      38.424  -9.555  -5.730  0.00  0.00     0.180 C 
ATOM     15  N   UNL d   1      39.141 -10.464  -6.324  0.00  0.00    -0.126 NA
BRANCH  15  16
ATOM     16  O   UNL d   1      39.564 -11.547  -5.558  0.00  0.00    -0.261 OA
ATOM     17  C   UNL d   1      40.670 -12.132  -6.275  0.00  0.00     0.240 C 
ENDBRANCH  15  16
BRANCH  14  18
ATOM     18  C   UNL d   1      38.106  -8.400  -6.580  0.00  0.00     0.102 A 
ATOM     19  N   UNL d   1      37.176  -7.445  -6.182  0.00  0.00    -0.222 NA
ATOM     20  C   UNL d   1      37.170  -6.441  -7.021  0.00  0.00     0.164 A 
ATOM     21  S   UNL d   1      38.186  -6.614  -8.391  0.00  0.00    -0.062 SA
ATOM     22  C   UNL d   1      38.720  -8.126  -7.791  0.00  0.00     0.087 A 
BRANCH  20  23
ATOM     23  N   UNL d   1      36.428  -5.343  -6.835  0.00  0.00    -0.378 N 
ATOM     24  H   UNL d   1      36.737  -4.634  -6.184  0.00  0.00     0.158 HD
ATOM     25  H   UNL d   1      35.888  -5.014  -7.626  0.00  0.00     0.158 HD
ENDBRANCH  20  23
ENDBRANCH  14  18
ENDBRANCH  11  14
ENDBRANCH   5  10
BRANCH   7  26
ATOM     26  C   UNL d   1      44.654  -8.832  -2.916  0.00  0.00     0.194 C 
ATOM     27  OXT UNL d   1      45.386  -8.267  -3.716  0.00  0.00    -0.645 OA
BRANCH  26  28
ATOM     28  O   UNL d   1      44.873 -10.116  -2.568  0.00  0.00    -0.772 OA
ATOM     29  H   UNL d   1      45.485 -10.615  -3.150  0.00  0.00     0.167 HD
ENDBRANCH  26  28
ENDBRANCH   7  26
BRANCH   8  30
ATOM     30  C   UNL d   1      44.692  -7.109  -0.479  0.00  0.00     0.216 C 
BRANCH  30  31
ATOM     31  O   UNL d   1      44.493  -7.521   0.881  0.00  0.00    -0.317 OA
BRANCH  31  32
ATOM     32  C   UNL d   1      45.139  -8.650   1.270  0.00  0.00     0.255 C 
ATOM     33  O   UNL d   1      44.798  -9.385   2.186  0.00  0.00    -0.266 OA
ATOM     34  C   UNL d   1      46.336  -8.881   0.399  0.00  0.00     0.126 C 
ENDBRANCH  31  32
ENDBRANCH  30  31
ENDBRANCH   8  30
TORSDOF 10
ENDMDL
MODEL 6
REMARK VINA RESULT:      -6.0      3.688      6.134
REMARK  10 active torsions:
REMARK  status: ('A' for Active; 'I' for Inactive)
REMARK    1  A    between atoms: O_4  and  C_21 
REMARK    2  A    between atoms: O_4  and  C_26 
REMARK    3  A    between atoms: O_5  and  C_22 
REMARK    4  A    between atoms: O_8  and  N_12 
REMARK    5  A    between atoms: CA_16  and  N_11 
REMARK       I    between atoms: N_11  and  C_23 
REMARK    6  A    between atoms: N_14  and  C_29 
REMARK    7  A    between atoms: CA_18  and  C_22 
REMARK    8  A    between atoms: C_19  and  C_21 
REMARK    9  A    between atoms: C_23  and  C_24 
REMARK   10  A    between atoms: C_24  and  C_25 
ROOT
ATOM      1  S   UNL d   1      38.920  -8.821  -4.324  0.00  0.00    -0.136 SA
ATOM      2  O   UNL d   1      42.616  -9.732  -2.678  0.00  0.00    -0.271 OA
ATOM      3  N   UNL d   1      41.249  -7.962  -3.356  0.00  0.00    -0.293 N 
ATOM      4  C   UNL d   1      40.560  -8.099  -4.638  0.00  0.00     0.187 C 
ATOM      5  CA  UNL d   1      41.722  -9.086  -5.037  0.00  0.00     0.211 C 
ATOM      6  C   UNL d   1      41.978  -9.112  -3.508  0.00  0.00     0.251 C 
ATOM      7  CA  UNL d   1      40.696  -7.399  -2.231  0.00  0.00     0.117 C 
ATOM      8  C   UNL d   1      39.369  -7.115  -2.165  0.00  0.00    -0.013 C 
ATOM      9  C   UNL d   1      38.389  -7.430  -3.278  0.00  0.00     0.115 C 
ENDROOT
BRANCH   5  10
ATOM     10  N   UNL d   1      41.357 -10.288  -5.870  0.00  0.00    -0.339 N 
ATOM     11  C   UNL d   1      41.326 -10.085  -7.248  0.00  0.00     0.275 C 
ATOM     12  O   UNL d   1      41.024 -11.013  -8.000  0.00  0.00    -0.266 OA
ATOM     13  H   UNL d   1      41.320 -11.236  -5.507  0.00  0.00     0.163 HD
BRANCH  11  14
ATOM     14  C   UNL d   1      41.680  -8.743  -7.882  0.00  0.00     0.180 C 
ATOM     15  N   UNL d   1      40.881  -7.820  -8.333  0.00  0.00    -0.126 NA
BRANCH  15  16
ATOM     16  O   UNL d   1      39.512  -8.044  -8.210  0.00  0.00    -0.261 OA
ATOM     17  C   UNL d   1      38.962  -6.837  -7.646  0.00  0.00     0.240 C 
ENDBRANCH  15  16
BRANCH  14  18
ATOM     18  C   UNL d   1      43.102  -8.475  -8.141  0.00  0.00     0.102 A 
ATOM     19  N   UNL d   1      43.683  -7.262  -7.789  0.00  0.00    -0.222 NA
ATOM     20  C   UNL d   1      44.977  -7.309  -7.976  0.00  0.00     0.164 A 
ATOM     21  S   UNL d   1      45.572  -8.754  -8.680  0.00  0.00    -0.062 SA
ATOM     22  C   UNL d   1      43.984  -9.392  -8.688  0.00  0.00     0.087 A 
BRANCH  20  23
ATOM     23  N   UNL d   1      45.797  -6.305  -7.641  0.00  0.00    -0.378 N 
ATOM     24  H   UNL d   1      46.785  -6.378  -7.840  0.00  0.00     0.158 HD
ATOM     25  H   UNL d   1      45.409  -5.370  -7.658  0.00  0.00     0.158 HD
ENDBRANCH  20  23
ENDBRANCH  14  18
ENDBRANCH  11  14
ENDBRANCH   5  10
BRANCH   7  26
ATOM     26  C   UNL d   1      41.633  -6.963  -1.123  0.00  0.00     0.194 C 
ATOM     27  OXT UNL d   1      41.741  -7.557  -0.060  0.00  0.00    -0.645 OA
BRANCH  26  28
ATOM     28  O   UNL d   1      42.261  -5.787  -1.324  0.00  0.00    -0.772 OA
ATOM     29  H   UNL d   1      42.238  -5.444  -2.243  0.00  0.00     0.167 HD
ENDBRANCH  26  28
ENDBRANCH   7  26
BRANCH   8  30
ATOM     30  C   UNL d   1      38.688  -6.507  -0.947  0.00  0.00     0.216 C 
BRANCH  30  31
ATOM     31  O   UNL d   1      38.082  -7.537  -0.152  0.00  0.00    -0.317 OA
BRANCH  31  32
ATOM     32  C   UNL d   1      37.748  -7.198   1.120  0.00  0.00     0.255 C 
ATOM     33  O   UNL d   1      37.001  -6.283   1.439  0.00  0.00    -0.266 OA
ATOM     34  C   UNL d   1      38.418  -8.122   2.090  0.00  0.00     0.126 C 
ENDBRANCH  31  32
ENDBRANCH  30  31
ENDBRANCH   8  30
TORSDOF 10
ENDMDL
MODEL 7
REMARK VINA RESULT:      -5.9      3.803      8.243
REMARK  10 active torsions:
REMARK  status: ('A' for Active; 'I' for Inactive)
REMARK    1  A    between atoms: O_4  and  C_21 
REMARK    2  A    between atoms: O_4  and  C_26 
REMARK    3  A    between atoms: O_5  and  C_22 
REMARK    4  A    between atoms: O_8  and  N_12 
REMARK    5  A    between atoms: CA_16  and  N_11 
REMARK       I    between atoms: N_11  and  C_23 
REMARK    6  A    between atoms: N_14  and  C_29 
REMARK    7  A    between atoms: CA_18  and  C_22 
REMARK    8  A    between atoms: C_19  and  C_21 
REMARK    9  A    between atoms: C_23  and  C_24 
REMARK   10  A    between atoms: C_24  and  C_25 
ROOT
ATOM      1  S   UNL d   1      41.080 -10.400  -3.346  0.00  0.00    -0.136 SA
ATOM      2  O   UNL d   1      39.477  -9.532  -7.070  0.00  0.00    -0.271 OA
ATOM      3  N   UNL d   1      40.904  -8.722  -5.406  0.00  0.00    -0.293 N 
ATOM      4  C   UNL d   1      40.451  -8.833  -4.021  0.00  0.00     0.187 C 
ATOM      5  CA  UNL d   1      38.989  -8.833  -4.610  0.00  0.00     0.211 C 
ATOM      6  C   UNL d   1      39.720  -9.162  -5.936  0.00  0.00     0.251 C 
ATOM      7  CA  UNL d   1      42.197  -8.925  -5.822  0.00  0.00     0.117 C 
ATOM      8  C   UNL d   1      43.127  -9.464  -4.990  0.00  0.00    -0.013 C 
ATOM      9  C   UNL d   1      42.822  -9.926  -3.579  0.00  0.00     0.115 C 
ENDROOT
BRANCH   5  10
ATOM     10  N   UNL d   1      37.972  -9.722  -3.943  0.00  0.00    -0.339 N 
ATOM     11  C   UNL d   1      37.010  -9.074  -3.172  0.00  0.00     0.275 C 
ATOM     12  O   UNL d   1      36.149  -9.729  -2.582  0.00  0.00    -0.266 OA
ATOM     13  H   UNL d   1      37.846 -10.705  -4.170  0.00  0.00     0.163 HD
BRANCH  11  14
ATOM     14  C   UNL d   1      36.959  -7.554  -3.042  0.00  0.00     0.180 C 
ATOM     15  N   UNL d   1      36.550  -6.676  -3.911  0.00  0.00    -0.126 NA
BRANCH  15  16
ATOM     16  O   UNL d   1      36.061  -7.156  -5.123  0.00  0.00    -0.261 OA
ATOM     17  C   UNL d   1      34.631  -6.981  -5.070  0.00  0.00     0.240 C 
ENDBRANCH  15  16
BRANCH  14  18
ATOM     18  C   UNL d   1      37.552  -6.962  -1.834  0.00  0.00     0.102 A 
ATOM     19  N   UNL d   1      36.810  -6.804  -0.669  0.00  0.00    -0.222 NA
ATOM     20  C   UNL d   1      37.580  -6.402   0.308  0.00  0.00     0.164 A 
ATOM     21  S   UNL d   1      39.210  -6.081  -0.118  0.00  0.00    -0.062 SA
ATOM     22  C   UNL d   1      38.876  -6.571  -1.723  0.00  0.00     0.087 A 
BRANCH  20  23
ATOM     23  N   UNL d   1      37.142  -6.248   1.563  0.00  0.00    -0.378 N 
ATOM     24  H   UNL d   1      36.924  -5.323   1.908  0.00  0.00     0.158 HD
ATOM     25  H   UNL d   1      36.599  -7.007   1.957  0.00  0.00     0.158 HD
ENDBRANCH  20  23
ENDBRANCH  14  18
ENDBRANCH  11  14
ENDBRANCH   5  10
BRANCH   7  26
ATOM     26  C   UNL d   1      42.598  -8.392  -7.182  0.00  0.00     0.194 C 
ATOM     27  OXT UNL d   1      43.027  -7.262  -7.363  0.00  0.00    -0.645 OA
BRANCH  26  28
ATOM     28  O   UNL d   1      42.333  -9.205  -8.225  0.00  0.00    -0.772 OA
ATOM     29  H   UNL d   1      42.644 -10.131  -8.131  0.00  0.00     0.167 HD
ENDBRANCH  26  28
ENDBRANCH   7  26
BRANCH   8  30
ATOM     30  C   UNL d   1      44.572  -9.733  -5.388  0.00  0.00     0.216 C 
BRANCH  30  31
ATOM     31  O   UNL d   1      45.402  -8.617  -5.032  0.00  0.00    -0.317 OA
BRANCH  31  32
ATOM     32  C   UNL d   1      46.231  -8.150  -6.001  0.00  0.00     0.255 C 
ATOM     33  O   UNL d   1      46.252  -7.004  -6.427  0.00  0.00    -0.266 OA
ATOM     34  C   UNL d   1      47.139  -9.245  -6.471  0.00  0.00     0.126 C 
ENDBRANCH  31  32
ENDBRANCH  30  31
ENDBRANCH   8  30
TORSDOF 10
ENDMDL
MODEL 8
REMARK VINA RESULT:      -5.8      2.744      8.650
REMARK  10 active torsions:
REMARK  status: ('A' for Active; 'I' for Inactive)
REMARK    1  A    between atoms: O_4  and  C_21 
REMARK    2  A    between atoms: O_4  and  C_26 
REMARK    3  A    between atoms: O_5  and  C_22 
REMARK    4  A    between atoms: O_8  and  N_12 
REMARK    5  A    between atoms: CA_16  and  N_11 
REMARK       I    between atoms: N_11  and  C_23 
REMARK    6  A    between atoms: N_14  and  C_29 
REMARK    7  A    between atoms: CA_18  and  C_22 
REMARK    8  A    between atoms: C_19  and  C_21 
REMARK    9  A    between atoms: C_23  and  C_24 
REMARK   10  A    between atoms: C_24  and  C_25 
ROOT
ATOM      1  S   UNL d   1      44.819  -9.226  -4.304  0.00  0.00    -0.136 SA
ATOM      2  O   UNL d   1      42.072  -6.843  -2.311  0.00  0.00    -0.271 OA
ATOM      3  N   UNL d   1      43.552  -8.631  -2.038  0.00  0.00    -0.293 N 
ATOM      4  C   UNL d   1      43.554  -9.664  -3.072  0.00  0.00     0.187 C 
ATOM      5  CA  UNL d   1      42.071  -9.222  -3.369  0.00  0.00     0.211 C 
ATOM      6  C   UNL d   1      42.479  -7.962  -2.565  0.00  0.00     0.251 C 
ATOM      7  CA  UNL d   1      44.676  -8.157  -1.407  0.00  0.00     0.117 C 
ATOM      8  C   UNL d   1      45.920  -8.468  -1.857  0.00  0.00    -0.013 C 
ATOM      9  C   UNL d   1      46.178  -9.304  -3.095  0.00  0.00     0.115 C 
ENDROOT
BRANCH   5  10
ATOM     10  N   UNL d   1      41.621  -9.220  -4.807  0.00  0.00    -0.339 N 
ATOM     11  C   UNL d   1      40.362  -9.763  -5.051  0.00  0.00     0.275 C 
ATOM     12  O   UNL d   1      39.925  -9.811  -6.201  0.00  0.00    -0.266 OA
ATOM     13  H   UNL d   1      42.088  -8.697  -5.543  0.00  0.00     0.163 HD
BRANCH  11  14
ATOM     14  C   UNL d   1      39.470 -10.289  -3.929  0.00  0.00     0.180 C 
ATOM     15  N   UNL d   1      39.508 -11.447  -3.336  0.00  0.00    -0.126 NA
BRANCH  15  16
ATOM     16  O   UNL d   1      40.501 -12.338  -3.735  0.00  0.00    -0.261 OA
ATOM     17  C   UNL d   1      39.847 -13.308  -4.578  0.00  0.00     0.240 C 
ENDBRANCH  15  16
BRANCH  14  18
ATOM     18  C   UNL d   1      38.335  -9.450  -3.522  0.00  0.00     0.102 A 
ATOM     19  N   UNL d   1      38.492  -8.089  -3.286  0.00  0.00    -0.222 NA
ATOM     20  C   UNL d   1      37.328  -7.526  -3.086  0.00  0.00     0.164 A 
ATOM     21  S   UNL d   1      35.985  -8.592  -3.059  0.00  0.00    -0.062 SA
ATOM     22  C   UNL d   1      37.032  -9.903  -3.395  0.00  0.00     0.087 A 
BRANCH  20  23
ATOM     23  N   UNL d   1      37.178  -6.208  -2.916  0.00  0.00    -0.378 N 
ATOM     24  H   UNL d   1      37.544  -5.568  -3.608  0.00  0.00     0.158 HD
ATOM     25  H   UNL d   1      36.349  -5.899  -2.422  0.00  0.00     0.158 HD
ENDBRANCH  20  23
ENDBRANCH  14  18
ENDBRANCH  11  14
ENDBRANCH   5  10
BRANCH   7  26
ATOM     26  C   UNL d   1      44.495  -7.403  -0.105  0.00  0.00     0.194 C 
ATOM     27  OXT UNL d   1      44.388  -7.952   0.982  0.00  0.00    -0.645 OA
BRANCH  26  28
ATOM     28  O   UNL d   1      44.329  -6.071  -0.225  0.00  0.00    -0.772 OA
ATOM     29  H   UNL d   1      43.623  -5.785  -0.843  0.00  0.00     0.167 HD
ENDBRANCH  26  28
ENDBRANCH   7  26
BRANCH   8  30
ATOM     30  C   UNL d   1      47.207  -7.966  -1.218  0.00  0.00     0.216 C 
BRANCH  30  31
ATOM     31  O   UNL d   1      48.131  -9.050  -1.042  0.00  0.00    -0.317 OA
BRANCH  31  32
ATOM     32  C   UNL d   1      48.027  -9.747   0.119  0.00  0.00     0.255 C 
ATOM     33  O   UNL d   1      47.396  -9.395   1.105  0.00  0.00    -0.266 OA
ATOM     34  C   UNL d   1      48.791 -11.032   0.016  0.00  0.00     0.126 C 
ENDBRANCH  31  32
ENDBRANCH  30  31
ENDBRANCH   8  30
TORSDOF 10
ENDMDL
MODEL 9
REMARK VINA RESULT:      -5.8      3.774      8.132
REMARK  10 active torsions:
REMARK  status: ('A' for Active; 'I' for Inactive)
REMARK    1  A    between atoms: O_4  and  C_21 
REMARK    2  A    between atoms: O_4  and  C_26 
REMARK    3  A    between atoms: O_5  and  C_22 
REMARK    4  A    between atoms: O_8  and  N_12 
REMARK    5  A    between atoms: CA_16  and  N_11 
REMARK       I    between atoms: N_11  and  C_23 
REMARK    6  A    between atoms: N_14  and  C_29 
REMARK    7  A    between atoms: CA_18  and  C_22 
REMARK    8  A    between atoms: C_19  and  C_21 
REMARK    9  A    between atoms: C_23  and  C_24 
REMARK   10  A    between atoms: C_24  and  C_25 
ROOT
ATOM      1  S   UNL d   1      42.329 -10.023  -3.194  0.00  0.00    -0.136 SA
ATOM      2  O   UNL d   1      39.163  -8.984  -5.663  0.00  0.00    -0.271 OA
ATOM      3  N   UNL d   1      41.278  -8.304  -4.936  0.00  0.00    -0.293 N 
ATOM      4  C   UNL d   1      41.560  -8.404  -3.505  0.00  0.00     0.187 C 
ATOM      5  CA  UNL d   1      40.002  -8.290  -3.298  0.00  0.00     0.211 C 
ATOM      6  C   UNL d   1      39.959  -8.650  -4.805  0.00  0.00     0.251 C 
ATOM      7  CA  UNL d   1      42.181  -8.594  -5.930  0.00  0.00     0.117 C 
ATOM      8  C   UNL d   1      43.359  -9.211  -5.653  0.00  0.00    -0.013 C 
ATOM      9  C   UNL d   1      43.757  -9.672  -4.265  0.00  0.00     0.115 C 
ENDROOT
BRANCH   5  10
ATOM     10  N   UNL d   1      39.386  -9.114  -2.197  0.00  0.00    -0.339 N 
ATOM     11  C   UNL d   1      38.153  -8.671  -1.723  0.00  0.00     0.275 C 
ATOM     12  O   UNL d   1      37.588  -9.281  -0.814  0.00  0.00    -0.266 OA
ATOM     13  H   UNL d   1      39.719 -10.036  -1.928  0.00  0.00     0.163 HD
BRANCH  11  14
ATOM     14  C   UNL d   1      37.445  -7.452  -2.309  0.00  0.00     0.180 C 
ATOM     15  N   UNL d   1      37.558  -6.202  -1.962  0.00  0.00    -0.126 NA
BRANCH  15  16
ATOM     16  O   UNL d   1      38.456  -5.900  -0.943  0.00  0.00    -0.261 OA
ATOM     17  C   UNL d   1      37.682  -5.877   0.273  0.00  0.00     0.240 C 
ENDBRANCH  15  16
BRANCH  14  18
ATOM     18  C   UNL d   1      36.407  -7.698  -3.318  0.00  0.00     0.102 A 
ATOM     19  N   UNL d   1      35.276  -8.450  -3.021  0.00  0.00    -0.222 NA
ATOM     20  C   UNL d   1      34.428  -8.407  -4.017  0.00  0.00     0.164 A 
ATOM     21  S   UNL d   1      34.964  -7.562  -5.409  0.00  0.00    -0.062 SA
ATOM     22  C   UNL d   1      36.422  -7.176  -4.601  0.00  0.00     0.087 A 
BRANCH  20  23
ATOM     23  N   UNL d   1      33.218  -8.977  -3.967  0.00  0.00    -0.378 N 
ATOM     24  H   UNL d   1      32.493  -8.667  -4.600  0.00  0.00     0.158 HD
ATOM     25  H   UNL d   1      33.179  -9.950  -3.690  0.00  0.00     0.158 HD
ENDBRANCH  20  23
ENDBRANCH  14  18
ENDBRANCH  11  14
ENDBRANCH   5  10
BRANCH   7  26
ATOM     26  C   UNL d   1      41.895  -8.070  -7.323  0.00  0.00     0.194 C 
ATOM     27  OXT UNL d   1      41.382  -8.743  -8.204  0.00  0.00    -0.645 OA
BRANCH  26  28
ATOM     28  O   UNL d   1      42.364  -6.833  -7.585  0.00  0.00    -0.772 OA
ATOM     29  H   UNL d   1      42.398  -6.221  -6.818  0.00  0.00     0.167 HD
ENDBRANCH  26  28
ENDBRANCH   7  26
BRANCH   8  30
ATOM     30  C   UNL d   1      44.397  -9.577  -6.706  0.00  0.00     0.216 C 
BRANCH  30  31
ATOM     31  O   UNL d   1      45.611  -8.844  -6.482  0.00  0.00    -0.317 OA
BRANCH  31  32
ATOM     32  C   UNL d   1      45.846  -7.799  -7.318  0.00  0.00     0.255 C 
ATOM     33  O   UNL d   1      45.197  -6.764  -7.362  0.00  0.00    -0.266 OA
ATOM     34  C   UNL d   1      47.036  -8.090  -8.180  0.00  0.00     0.126 C 
ENDBRANCH  31  32
ENDBRANCH  30  31
ENDBRANCH   8  30
TORSDOF 10
ENDMDL
