MODEL 1
REMARK VINA RESULT:      -7.5      0.000      0.000
REMARK  10 active torsions:
REMARK  status: ('A' for Active; 'I' for Inactive)
REMARK    1  A    between atoms: O_4  and  C_21 
REMARK    2  A    between atoms: O_4  and  C_26 
REMARK    3  A    between atoms: O_5  and  C_22 
REMARK    4  A    between atoms: O_8  and  N_12 
REMARK    5  A    between atoms: CA_16  and  N_11 
REMARK       I    between atoms: N_11  and  C_23 
REMARK    6  A    between atoms: N_14  and  C_29 
REMARK    7  A    between atoms: CA_18  and  C_22 
REMARK    8  A    between atoms: C_19  and  C_21 
REMARK    9  A    between atoms: C_23  and  C_24 
REMARK   10  A    between atoms: C_24  and  C_25 
ROOT
ATOM      1  S   UNL d   1      38.585  -9.651  -2.116  0.00  0.00    -0.136 SA
ATOM      2  O   UNL d   1      41.983  -7.431  -2.967  0.00  0.00    -0.271 OA
ATOM      3  N   UNL d   1      39.764  -7.266  -2.253  0.00  0.00    -0.293 N 
ATOM      4  C   UNL d   1      38.767  -8.057  -2.973  0.00  0.00     0.187 C 
ATOM      5  CA  UNL d   1      39.759  -8.001  -4.196  0.00  0.00     0.211 C 
ATOM      6  C   UNL d   1      40.784  -7.584  -3.111  0.00  0.00     0.251 C 
ATOM      7  CA  UNL d   1      39.770  -7.071  -0.894  0.00  0.00     0.117 C 
ATOM      8  C   UNL d   1      38.955  -7.788  -0.076  0.00  0.00    -0.013 C 
ATOM      9  C   UNL d   1      38.023  -8.878  -0.568  0.00  0.00     0.115 C 
ENDROOT
BRANCH   5  10
ATOM     10  N   UNL d   1      39.869  -9.232  -5.058  0.00  0.00    -0.339 N 
ATOM     11  C   UNL d   1      39.112  -9.224  -6.228  0.00  0.00     0.275 C 
ATOM     12  O   UNL d   1      39.136 -10.198  -6.982  0.00  0.00    -0.266 OA
ATOM     13  H   UNL d   1      40.578  -9.949  -4.930  0.00  0.00     0.163 HD
BRANCH  11  14
ATOM     14  C   UNL d   1      38.255  -8.029  -6.636  0.00  0.00     0.180 C 
ATOM     15  N   UNL d   1      38.559  -7.045  -7.432  0.00  0.00    -0.126 NA
BRANCH  15  16
ATOM     16  O   UNL d   1      39.817  -7.069  -8.028  0.00  0.00    -0.261 OA
ATOM     17  C   UNL d   1      39.597  -7.439  -9.403  0.00  0.00     0.240 C 
ENDBRANCH  15  16
BRANCH  14  18
ATOM     18  C   UNL d   1      36.954  -7.876  -5.972  0.00  0.00     0.102 A 
ATOM     19  N   UNL d   1      36.424  -8.890  -5.181  0.00  0.00    -0.222 NA
ATOM     20  C   UNL d   1      35.340  -8.474  -4.578  0.00  0.00     0.164 A 
ATOM     21  S   UNL d   1      34.822  -6.893  -4.993  0.00  0.00    -0.062 SA
ATOM     22  C   UNL d   1      36.181  -6.728  -6.019  0.00  0.00     0.087 A 
BRANCH  20  23
ATOM     23  N   UNL d   1      34.671  -9.219  -3.690  0.00  0.00    -0.378 N 
ATOM     24  H   UNL d   1      34.765 -10.226  -3.709  0.00  0.00     0.158 HD
ATOM     25  H   UNL d   1      34.499  -8.808  -2.781  0.00  0.00     0.158 HD
ENDBRANCH  20  23
ENDBRANCH  14  18
ENDBRANCH  11  14
ENDBRANCH   5  10
BRANCH   7  26
ATOM     26  C   UNL d   1      40.599  -5.928  -0.344  0.00  0.00     0.194 C 
ATOM     27  OXT UNL d   1      40.125  -4.852  -0.010  0.00  0.00    -0.645 OA
BRANCH  26  28
ATOM     28  O   UNL d   1      41.933  -6.119  -0.361  0.00  0.00    -0.772 OA
ATOM     29  H   UNL d   1      42.328  -6.436   0.479  0.00  0.00     0.167 HD
ENDBRANCH  26  28
ENDBRANCH   7  26
BRANCH   8  30
ATOM     30  C   UNL d   1      38.921  -7.637   1.439  0.00  0.00     0.216 C 
BRANCH  30  31
ATOM     31  O   UNL d   1      37.684  -7.036   1.851  0.00  0.00    -0.317 OA
BRANCH  31  32
ATOM     32  C   UNL d   1      37.092  -7.571   2.949  0.00  0.00     0.255 C 
ATOM     33  O   UNL d   1      36.318  -6.987   3.695  0.00  0.00    -0.266 OA
ATOM     34  C   UNL d   1      37.512  -8.999   3.115  0.00  0.00     0.126 C 
ENDBRANCH  31  32
ENDBRANCH  30  31
ENDBRANCH   8  30
TORSDOF 10
ENDMDL
MODEL 2
REMARK VINA RESULT:      -7.3      1.939      2.436
REMARK  10 active torsions:
REMARK  status: ('A' for Active; 'I' for Inactive)
REMARK    1  A    between atoms: O_4  and  C_21 
REMARK    2  A    between atoms: O_4  and  C_26 
REMARK    3  A    between atoms: O_5  and  C_22 
REMARK    4  A    between atoms: O_8  and  N_12 
REMARK    5  A    between atoms: CA_16  and  N_11 
REMARK       I    between atoms: N_11  and  C_23 
REMARK    6  A    between atoms: N_14  and  C_29 
REMARK    7  A    between atoms: CA_18  and  C_22 
REMARK    8  A    between atoms: C_19  and  C_21 
REMARK    9  A    between atoms: C_23  and  C_24 
REMARK   10  A    between atoms: C_24  and  C_25 
ROOT
ATOM      1  S   UNL d   1      37.497  -8.530  -2.647  0.00  0.00    -0.136 SA
ATOM      2  O   UNL d   1      41.630  -8.459  -2.311  0.00  0.00    -0.271 OA
ATOM      3  N   UNL d   1      39.733  -7.099  -2.434  0.00  0.00    -0.293 N 
ATOM      4  C   UNL d   1      38.724  -7.443  -3.434  0.00  0.00     0.187 C 
ATOM      5  CA  UNL d   1      39.898  -8.131  -4.228  0.00  0.00     0.211 C 
ATOM      6  C   UNL d   1      40.629  -8.042  -2.864  0.00  0.00     0.251 C 
ATOM      7  CA  UNL d   1      39.453  -6.649  -1.167  0.00  0.00     0.117 C 
ATOM      8  C   UNL d   1      38.190  -6.693  -0.667  0.00  0.00    -0.013 C 
ATOM      9  C   UNL d   1      37.010  -7.275  -1.422  0.00  0.00     0.115 C 
ENDROOT
BRANCH   5  10
ATOM     10  N   UNL d   1      39.587  -9.413  -4.957  0.00  0.00    -0.339 N 
ATOM     11  C   UNL d   1      39.638  -9.350  -6.347  0.00  0.00     0.275 C 
ATOM     12  O   UNL d   1      39.383 -10.351  -7.019  0.00  0.00    -0.266 OA
ATOM     13  H   UNL d   1      39.530 -10.321  -4.502  0.00  0.00     0.163 HD
BRANCH  11  14
ATOM     14  C   UNL d   1      40.026  -8.075  -7.091  0.00  0.00     0.180 C 
ATOM     15  N   UNL d   1      41.196  -7.511  -7.182  0.00  0.00    -0.126 NA
BRANCH  15  16
ATOM     16  O   UNL d   1      42.262  -8.144  -6.549  0.00  0.00    -0.261 OA
ATOM     17  C   UNL d   1      43.248  -8.378  -7.574  0.00  0.00     0.240 C 
ENDBRANCH  15  16
BRANCH  14  18
ATOM     18  C   UNL d   1      38.941  -7.293  -7.699  0.00  0.00     0.102 A 
ATOM     19  N   UNL d   1      37.981  -6.662  -6.916  0.00  0.00    -0.222 NA
ATOM     20  C   UNL d   1      37.213  -5.909  -7.660  0.00  0.00     0.164 A 
ATOM     21  S   UNL d   1      37.511  -5.985  -9.347  0.00  0.00    -0.062 SA
ATOM     22  C   UNL d   1      38.804  -7.068  -9.058  0.00  0.00     0.087 A 
BRANCH  20  23
ATOM     23  N   UNL d   1      36.255  -5.123  -7.154  0.00  0.00    -0.378 N 
ATOM     24  H   UNL d   1      36.230  -4.941  -6.160  0.00  0.00     0.158 HD
ATOM     25  H   UNL d   1      35.907  -4.381  -7.749  0.00  0.00     0.158 HD
ENDBRANCH  20  23
ENDBRANCH  14  18
ENDBRANCH  11  14
ENDBRANCH   5  10
BRANCH   7  26
ATOM     26  C   UNL d   1      40.561  -5.961  -0.396  0.00  0.00     0.194 C 
ATOM     27  OXT UNL d   1      40.599  -4.754  -0.204  0.00  0.00    -0.645 OA
BRANCH  26  28
ATOM     28  O   UNL d   1      41.592  -6.750  -0.033  0.00  0.00    -0.772 OA
ATOM     29  H   UNL d   1      42.135  -6.422   0.716  0.00  0.00     0.167 HD
ENDBRANCH  26  28
ENDBRANCH   7  26
BRANCH   8  30
ATOM     30  C   UNL d   1      37.810  -6.229   0.732  0.00  0.00     0.216 C 
BRANCH  30  31
ATOM     31  O   UNL d   1      37.232  -7.312   1.475  0.00  0.00    -0.317 OA
BRANCH  31  32
ATOM     32  C   UNL d   1      37.989  -7.824   2.480  0.00  0.00     0.255 C 
ATOM     33  O   UNL d   1      39.180  -7.607   2.654  0.00  0.00    -0.266 OA
ATOM     34  C   UNL d   1      37.147  -8.692   3.365  0.00  0.00     0.126 C 
ENDBRANCH  31  32
ENDBRANCH  30  31
ENDBRANCH   8  30
TORSDOF 10
ENDMDL
MODEL 3
REMARK VINA RESULT:      -7.1      3.801      6.552
REMARK  10 active torsions:
REMARK  status: ('A' for Active; 'I' for Inactive)
REMARK    1  A    between atoms: O_4  and  C_21 
REMARK    2  A    between atoms: O_4  and  C_26 
REMARK    3  A    between atoms: O_5  and  C_22 
REMARK    4  A    between atoms: O_8  and  N_12 
REMARK    5  A    between atoms: CA_16  and  N_11 
REMARK       I    between atoms: N_11  and  C_23 
REMARK    6  A    between atoms: N_14  and  C_29 
REMARK    7  A    between atoms: CA_18  and  C_22 
REMARK    8  A    between atoms: C_19  and  C_21 
REMARK    9  A    between atoms: C_23  and  C_24 
REMARK   10  A    between atoms: C_24  and  C_25 
ROOT
ATOM      1  S   UNL d   1      38.553 -10.762  -3.976  0.00  0.00    -0.136 SA
ATOM      2  O   UNL d   1      39.926  -8.633  -0.692  0.00  0.00    -0.271 OA
ATOM      3  N   UNL d   1      39.032  -8.401  -2.839  0.00  0.00    -0.293 N 
ATOM      4  C   UNL d   1      39.576  -9.261  -3.889  0.00  0.00     0.187 C 
ATOM      5  CA  UNL d   1      40.884  -9.325  -3.012  0.00  0.00     0.211 C 
ATOM      6  C   UNL d   1      39.943  -8.801  -1.898  0.00  0.00     0.251 C 
ATOM      7  CA  UNL d   1      37.704  -8.072  -2.711  0.00  0.00     0.117 C 
ATOM      8  C   UNL d   1      36.749  -8.705  -3.441  0.00  0.00    -0.013 C 
ATOM      9  C   UNL d   1      37.043  -9.840  -4.403  0.00  0.00     0.115 C 
ENDROOT
BRANCH   5  10
ATOM     10  N   UNL d   1      41.627 -10.635  -2.968  0.00  0.00    -0.339 N 
ATOM     11  C   UNL d   1      42.932 -10.610  -3.454  0.00  0.00     0.275 C 
ATOM     12  O   UNL d   1      43.604 -11.643  -3.466  0.00  0.00    -0.266 OA
ATOM     13  H   UNL d   1      41.304 -11.450  -2.453  0.00  0.00     0.163 HD
BRANCH  11  14
ATOM     14  C   UNL d   1      43.589  -9.329  -3.962  0.00  0.00     0.180 C 
ATOM     15  N   UNL d   1      43.535  -8.804  -5.151  0.00  0.00    -0.126 NA
BRANCH  15  16
ATOM     16  O   UNL d   1      42.761  -9.459  -6.105  0.00  0.00    -0.261 OA
ATOM     17  C   UNL d   1      41.952  -8.441  -6.727  0.00  0.00     0.240 C 
ENDBRANCH  15  16
BRANCH  14  18
ATOM     18  C   UNL d   1      44.504  -8.634  -3.046  0.00  0.00     0.102 A 
ATOM     19  N   UNL d   1      45.706  -8.099  -3.496  0.00  0.00    -0.222 NA
ATOM     20  C   UNL d   1      46.277  -7.404  -2.547  0.00  0.00     0.164 A 
ATOM     21  S   UNL d   1      45.479  -7.429  -1.029  0.00  0.00    -0.062 SA
ATOM     22  C   UNL d   1      44.244  -8.401  -1.706  0.00  0.00     0.087 A 
BRANCH  20  23
ATOM     23  N   UNL d   1      47.406  -6.710  -2.731  0.00  0.00    -0.378 N 
ATOM     24  H   UNL d   1      47.905  -6.790  -3.607  0.00  0.00     0.158 HD
ATOM     25  H   UNL d   1      47.480  -5.818  -2.259  0.00  0.00     0.158 HD
ENDBRANCH  20  23
ENDBRANCH  14  18
ENDBRANCH  11  14
ENDBRANCH   5  10
BRANCH   7  26
ATOM     26  C   UNL d   1      37.348  -6.879  -1.848  0.00  0.00     0.194 C 
ATOM     27  OXT UNL d   1      36.909  -6.978  -0.711  0.00  0.00    -0.645 OA
BRANCH  26  28
ATOM     28  O   UNL d   1      37.423  -5.679  -2.457  0.00  0.00    -0.772 OA
ATOM     29  H   UNL d   1      36.823  -5.553  -3.223  0.00  0.00     0.167 HD
ENDBRANCH  26  28
ENDBRANCH   7  26
BRANCH   8  30
ATOM     30  C   UNL d   1      35.260  -8.404  -3.339  0.00  0.00     0.216 C 
BRANCH  30  31
ATOM     31  O   UNL d   1      34.744  -8.006  -4.618  0.00  0.00    -0.317 OA
BRANCH  31  32
ATOM     32  C   UNL d   1      35.133  -6.786  -5.071  0.00  0.00     0.255 C 
ATOM     33  O   UNL d   1      35.183  -5.763  -4.403  0.00  0.00    -0.266 OA
ATOM     34  C   UNL d   1      35.510  -6.873  -6.518  0.00  0.00     0.126 C 
ENDBRANCH  31  32
ENDBRANCH  30  31
ENDBRANCH   8  30
TORSDOF 10
ENDMDL
MODEL 4
REMARK VINA RESULT:      -7.0      2.736      8.259
REMARK  10 active torsions:
REMARK  status: ('A' for Active; 'I' for Inactive)
REMARK    1  A    between atoms: O_4  and  C_21 
REMARK    2  A    between atoms: O_4  and  C_26 
REMARK    3  A    between atoms: O_5  and  C_22 
REMARK    4  A    between atoms: O_8  and  N_12 
REMARK    5  A    between atoms: CA_16  and  N_11 
REMARK       I    between atoms: N_11  and  C_23 
REMARK    6  A    between atoms: N_14  and  C_29 
REMARK    7  A    between atoms: CA_18  and  C_22 
REMARK    8  A    between atoms: C_19  and  C_21 
REMARK    9  A    between atoms: C_23  and  C_24 
REMARK   10  A    between atoms: C_24  and  C_25 
ROOT
ATOM      1  S   UNL d   1      39.232  -9.413  -5.297  0.00  0.00    -0.136 SA
ATOM      2  O   UNL d   1      35.511  -7.810  -4.410  0.00  0.00    -0.271 OA
ATOM      3  N   UNL d   1      37.605  -7.304  -5.316  0.00  0.00    -0.293 N 
ATOM      4  C   UNL d   1      38.782  -7.794  -4.600  0.00  0.00     0.187 C 
ATOM      5  CA  UNL d   1      37.873  -7.786  -3.314  0.00  0.00     0.211 C 
ATOM      6  C   UNL d   1      36.723  -7.709  -4.350  0.00  0.00     0.251 C 
ATOM      7  CA  UNL d   1      37.480  -7.277  -6.683  0.00  0.00     0.117 C 
ATOM      8  C   UNL d   1      38.373  -7.914  -7.485  0.00  0.00    -0.013 C 
ATOM      9  C   UNL d   1      39.534  -8.736  -6.959  0.00  0.00     0.115 C 
ENDROOT
BRANCH   5  10
ATOM     10  N   UNL d   1      38.064  -8.903  -2.320  0.00  0.00    -0.339 N 
ATOM     11  C   UNL d   1      38.988  -8.662  -1.306  0.00  0.00     0.275 C 
ATOM     12  O   UNL d   1      39.214  -9.530  -0.460  0.00  0.00    -0.266 OA
ATOM     13  H   UNL d   1      37.446  -9.707  -2.249  0.00  0.00     0.163 HD
BRANCH  11  14
ATOM     14  C   UNL d   1      39.731  -7.335  -1.179  0.00  0.00     0.180 C 
ATOM     15  N   UNL d   1      39.241  -6.142  -1.007  0.00  0.00    -0.126 NA
BRANCH  15  16
ATOM     16  O   UNL d   1      37.858  -6.029  -0.893  0.00  0.00    -0.261 OA
ATOM     17  C   UNL d   1      37.576  -6.037   0.521  0.00  0.00     0.240 C 
ENDBRANCH  15  16
BRANCH  14  18
ATOM     18  C   UNL d   1      41.185  -7.356  -1.390  0.00  0.00     0.102 A 
ATOM     19  N   UNL d   1      42.043  -6.621  -0.580  0.00  0.00    -0.222 NA
ATOM     20  C   UNL d   1      43.288  -6.910  -0.857  0.00  0.00     0.164 A 
ATOM     21  S   UNL d   1      43.523  -7.990  -2.168  0.00  0.00    -0.062 SA
ATOM     22  C   UNL d   1      41.827  -8.126  -2.346  0.00  0.00     0.087 A 
BRANCH  20  23
ATOM     23  N   UNL d   1      44.321  -6.408  -0.170  0.00  0.00    -0.378 N 
ATOM     24  H   UNL d   1      45.235  -6.831  -0.260  0.00  0.00     0.158 HD
ATOM     25  H   UNL d   1      44.311  -5.413   0.015  0.00  0.00     0.158 HD
ENDBRANCH  20  23
ENDBRANCH  14  18
ENDBRANCH  11  14
ENDBRANCH   5  10
BRANCH   7  26
ATOM     26  C   UNL d   1      36.406  -6.391  -7.281  0.00  0.00     0.194 C 
ATOM     27  OXT UNL d   1      35.340  -6.815  -7.703  0.00  0.00    -0.645 OA
BRANCH  26  28
ATOM     28  O   UNL d   1      36.746  -5.096  -7.442  0.00  0.00    -0.772 OA
ATOM     29  H   UNL d   1      36.358  -4.649  -8.225  0.00  0.00     0.167 HD
ENDBRANCH  26  28
ENDBRANCH   7  26
BRANCH   8  30
ATOM     30  C   UNL d   1      38.286  -7.941  -9.005  0.00  0.00     0.216 C 
BRANCH  30  31
ATOM     31  O   UNL d   1      39.030  -6.848  -9.564  0.00  0.00    -0.317 OA
BRANCH  31  32
ATOM     32  C   UNL d   1      38.358  -6.038 -10.422  0.00  0.00     0.255 C 
ATOM     33  O   UNL d   1      38.117  -4.853 -10.238  0.00  0.00    -0.266 OA
ATOM     34  C   UNL d   1      37.958  -6.804 -11.645  0.00  0.00     0.126 C 
ENDBRANCH  31  32
ENDBRANCH  30  31
ENDBRANCH   8  30
TORSDOF 10
ENDMDL
MODEL 5
REMARK VINA RESULT:      -6.9      3.791      7.511
REMARK  10 active torsions:
REMARK  status: ('A' for Active; 'I' for Inactive)
REMARK    1  A    between atoms: O_4  and  C_21 
REMARK    2  A    between atoms: O_4  and  C_26 
REMARK    3  A    between atoms: O_5  and  C_22 
REMARK    4  A    between atoms: O_8  and  N_12 
REMARK    5  A    between atoms: CA_16  and  N_11 
REMARK       I    between atoms: N_11  and  C_23 
REMARK    6  A    between atoms: N_14  and  C_29 
REMARK    7  A    between atoms: CA_18  and  C_22 
REMARK    8  A    between atoms: C_19  and  C_21 
REMARK    9  A    between atoms: C_23  and  C_24 
REMARK   10  A    between atoms: C_24  and  C_25 
ROOT
ATOM      1  S   UNL d   1      39.245  -6.430  -0.834  0.00  0.00    -0.136 SA
ATOM      2  O   UNL d   1      41.465  -7.472  -4.178  0.00  0.00    -0.271 OA
ATOM      3  N   UNL d   1      40.035  -8.321  -2.536  0.00  0.00    -0.293 N 
ATOM      4  C   UNL d   1      40.270  -7.897  -1.156  0.00  0.00     0.187 C 
ATOM      5  CA  UNL d   1      41.764  -7.655  -1.597  0.00  0.00     0.211 C 
ATOM      6  C   UNL d   1      41.159  -7.709  -3.024  0.00  0.00     0.251 C 
ATOM      7  CA  UNL d   1      38.793  -8.483  -3.100  0.00  0.00     0.117 C 
ATOM      8  C   UNL d   1      37.671  -8.050  -2.468  0.00  0.00    -0.013 C 
ATOM      9  C   UNL d   1      37.686  -7.319  -1.140  0.00  0.00     0.115 C 
ENDROOT
BRANCH   5  10
ATOM     10  N   UNL d   1      42.477  -6.466  -1.008  0.00  0.00    -0.339 N 
ATOM     11  C   UNL d   1      43.739  -6.717  -0.475  0.00  0.00     0.275 C 
ATOM     12  O   UNL d   1      44.384  -5.801   0.038  0.00  0.00    -0.266 OA
ATOM     13  H   UNL d   1      42.178  -5.504  -1.145  0.00  0.00     0.163 HD
BRANCH  11  14
ATOM     14  C   UNL d   1      44.382  -8.100  -0.519  0.00  0.00     0.180 C 
ATOM     15  N   UNL d   1      44.719  -8.873   0.473  0.00  0.00    -0.126 NA
BRANCH  15  16
ATOM     16  O   UNL d   1      44.446  -8.418   1.760  0.00  0.00    -0.261 OA
ATOM     17  C   UNL d   1      45.338  -9.138   2.633  0.00  0.00     0.240 C 
ENDBRANCH  15  16
BRANCH  14  18
ATOM     18  C   UNL d   1      44.796  -8.608  -1.835  0.00  0.00     0.102 A 
ATOM     19  N   UNL d   1      44.265  -9.783  -2.354  0.00  0.00    -0.222 NA
ATOM     20  C   UNL d   1      44.663  -9.954  -3.588  0.00  0.00     0.164 A 
ATOM     21  S   UNL d   1      45.776  -8.789  -4.175  0.00  0.00    -0.062 SA
ATOM     22  C   UNL d   1      45.679  -7.959  -2.682  0.00  0.00     0.087 A 
BRANCH  20  23
ATOM     23  N   UNL d   1      44.237 -10.964  -4.357  0.00  0.00    -0.378 N 
ATOM     24  H   UNL d   1      43.968 -11.839  -3.929  0.00  0.00     0.158 HD
ATOM     25  H   UNL d   1      43.749 -10.718  -5.209  0.00  0.00     0.158 HD
ENDBRANCH  20  23
ENDBRANCH  14  18
ENDBRANCH  11  14
ENDBRANCH   5  10
BRANCH   7  26
ATOM     26  C   UNL d   1      38.693  -9.297  -4.374  0.00  0.00     0.194 C 
ATOM     27  OXT UNL d   1      38.610 -10.516  -4.391  0.00  0.00    -0.645 OA
BRANCH  26  28
ATOM     28  O   UNL d   1      38.830  -8.599  -5.520  0.00  0.00    -0.772 OA
ATOM     29  H   UNL d   1      38.460  -9.024  -6.323  0.00  0.00     0.167 HD
ENDBRANCH  26  28
ENDBRANCH   7  26
BRANCH   8  30
ATOM     30  C   UNL d   1      36.266  -8.181  -3.041  0.00  0.00     0.216 C 
BRANCH  30  31
ATOM     31  O   UNL d   1      35.956  -7.046  -3.863  0.00  0.00    -0.317 OA
BRANCH  31  32
ATOM     32  C   UNL d   1      34.860  -7.158  -4.656  0.00  0.00     0.255 C 
ATOM     33  O   UNL d   1      33.721  -6.836  -4.345  0.00  0.00    -0.266 OA
ATOM     34  C   UNL d   1      35.246  -7.725  -5.988  0.00  0.00     0.126 C 
ENDBRANCH  31  32
ENDBRANCH  30  31
ENDBRANCH   8  30
TORSDOF 10
ENDMDL
MODEL 6
REMARK VINA RESULT:      -6.8      3.603      8.612
REMARK  10 active torsions:
REMARK  status: ('A' for Active; 'I' for Inactive)
REMARK    1  A    between atoms: O_4  and  C_21 
REMARK    2  A    between atoms: O_4  and  C_26 
REMARK    3  A    between atoms: O_5  and  C_22 
REMARK    4  A    between atoms: O_8  and  N_12 
REMARK    5  A    between atoms: CA_16  and  N_11 
REMARK       I    between atoms: N_11  and  C_23 
REMARK    6  A    between atoms: N_14  and  C_29 
REMARK    7  A    between atoms: CA_18  and  C_22 
REMARK    8  A    between atoms: C_19  and  C_21 
REMARK    9  A    between atoms: C_23  and  C_24 
REMARK   10  A    between atoms: C_24  and  C_25 
ROOT
ATOM      1  S   UNL d   1      39.466  -8.832  -7.639  0.00  0.00    -0.136 SA
ATOM      2  O   UNL d   1      35.507  -7.818  -6.935  0.00  0.00    -0.271 OA
ATOM      3  N   UNL d   1      37.631  -6.926  -7.331  0.00  0.00    -0.293 N 
ATOM      4  C   UNL d   1      38.753  -7.518  -6.604  0.00  0.00     0.187 C 
ATOM      5  CA  UNL d   1      37.690  -7.944  -5.521  0.00  0.00     0.211 C 
ATOM      6  C   UNL d   1      36.682  -7.653  -6.662  0.00  0.00     0.251 C 
ATOM      7  CA  UNL d   1      37.680  -6.516  -8.640  0.00  0.00     0.117 C 
ATOM      8  C   UNL d   1      38.735  -6.831  -9.438  0.00  0.00    -0.013 C 
ATOM      9  C   UNL d   1      39.902  -7.685  -8.984  0.00  0.00     0.115 C 
ENDROOT
BRANCH   5  10
ATOM     10  N   UNL d   1      37.876  -9.283  -4.856  0.00  0.00    -0.339 N 
ATOM     11  C   UNL d   1      37.353  -9.401  -3.570  0.00  0.00     0.275 C 
ATOM     12  O   UNL d   1      37.474 -10.459  -2.951  0.00  0.00    -0.266 OA
ATOM     13  H   UNL d   1      38.182 -10.120  -5.346  0.00  0.00     0.163 HD
BRANCH  11  14
ATOM     14  C   UNL d   1      36.600  -8.261  -2.890  0.00  0.00     0.180 C 
ATOM     15  N   UNL d   1      35.394  -7.829  -3.123  0.00  0.00    -0.126 NA
BRANCH  15  16
ATOM     16  O   UNL d   1      34.656  -8.491  -4.101  0.00  0.00    -0.261 OA
ATOM     17  C   UNL d   1      33.643  -9.236  -3.396  0.00  0.00     0.240 C 
ENDBRANCH  15  16
BRANCH  14  18
ATOM     18  C   UNL d   1      37.345  -7.448  -1.919  0.00  0.00     0.102 A 
ATOM     19  N   UNL d   1      36.740  -6.975  -0.760  0.00  0.00    -0.222 NA
ATOM     20  C   UNL d   1      37.629  -6.409   0.016  0.00  0.00     0.164 A 
ATOM     21  S   UNL d   1      39.215  -6.308  -0.626  0.00  0.00    -0.062 SA
ATOM     22  C   UNL d   1      38.688  -7.132  -2.030  0.00  0.00     0.087 A 
BRANCH  20  23
ATOM     23  N   UNL d   1      37.336  -5.940   1.235  0.00  0.00    -0.378 N 
ATOM     24  H   UNL d   1      37.788  -5.100   1.570  0.00  0.00     0.158 HD
ATOM     25  H   UNL d   1      36.398  -6.106   1.579  0.00  0.00     0.158 HD
ENDBRANCH  20  23
ENDBRANCH  14  18
ENDBRANCH  11  14
ENDBRANCH   5  10
BRANCH   7  26
ATOM     26  C   UNL d   1      36.600  -5.574  -9.131  0.00  0.00     0.194 C 
ATOM     27  OXT UNL d   1      36.289  -4.545  -8.549  0.00  0.00    -0.645 OA
BRANCH  26  28
ATOM     28  O   UNL d   1      35.897  -6.002 -10.198  0.00  0.00    -0.772 OA
ATOM     29  H   UNL d   1      36.396  -6.059 -11.041  0.00  0.00     0.167 HD
ENDBRANCH  26  28
ENDBRANCH   7  26
BRANCH   8  30
ATOM     30  C   UNL d   1      38.848  -6.425 -10.901  0.00  0.00     0.216 C 
BRANCH  30  31
ATOM     31  O   UNL d   1      38.838  -4.995 -11.022  0.00  0.00    -0.317 OA
BRANCH  31  32
ATOM     32  C   UNL d   1      38.886  -4.497 -12.284  0.00  0.00     0.255 C 
ATOM     33  O   UNL d   1      38.130  -4.800 -13.197  0.00  0.00    -0.266 OA
ATOM     34  C   UNL d   1      39.999  -3.501 -12.402  0.00  0.00     0.126 C 
ENDBRANCH  31  32
ENDBRANCH  30  31
ENDBRANCH   8  30
TORSDOF 10
ENDMDL
MODEL 7
REMARK VINA RESULT:      -6.8      3.049      8.057
REMARK  10 active torsions:
REMARK  status: ('A' for Active; 'I' for Inactive)
REMARK    1  A    between atoms: O_4  and  C_21 
REMARK    2  A    between atoms: O_4  and  C_26 
REMARK    3  A    between atoms: O_5  and  C_22 
REMARK    4  A    between atoms: O_8  and  N_12 
REMARK    5  A    between atoms: CA_16  and  N_11 
REMARK       I    between atoms: N_11  and  C_23 
REMARK    6  A    between atoms: N_14  and  C_29 
REMARK    7  A    between atoms: CA_18  and  C_22 
REMARK    8  A    between atoms: C_19  and  C_21 
REMARK    9  A    between atoms: C_23  and  C_24 
REMARK   10  A    between atoms: C_24  and  C_25 
ROOT
ATOM      1  S   UNL d   1      39.933  -8.989  -6.889  0.00  0.00    -0.136 SA
ATOM      2  O   UNL d   1      36.249  -8.455  -5.062  0.00  0.00    -0.271 OA
ATOM      3  N   UNL d   1      38.027  -7.320  -6.069  0.00  0.00    -0.293 N 
ATOM      4  C   UNL d   1      39.381  -7.730  -5.699  0.00  0.00     0.187 C 
ATOM      5  CA  UNL d   1      38.744  -8.238  -4.350  0.00  0.00     0.211 C 
ATOM      6  C   UNL d   1      37.419  -8.130  -5.146  0.00  0.00     0.251 C 
ATOM      7  CA  UNL d   1      37.639  -6.967  -7.338  0.00  0.00     0.117 C 
ATOM      8  C   UNL d   1      38.450  -7.182  -8.407  0.00  0.00    -0.013 C 
ATOM      9  C   UNL d   1      39.803  -7.859  -8.310  0.00  0.00     0.115 C 
ENDROOT
BRANCH   5  10
ATOM     10  N   UNL d   1      39.294  -9.511  -3.759  0.00  0.00    -0.339 N 
ATOM     11  C   UNL d   1      40.073  -9.363  -2.614  0.00  0.00     0.275 C 
ATOM     12  O   UNL d   1      40.571 -10.353  -2.076  0.00  0.00    -0.266 OA
ATOM     13  H   UNL d   1      38.983 -10.440  -4.032  0.00  0.00     0.163 HD
BRANCH  11  14
ATOM     14  C   UNL d   1      40.323  -8.003  -1.969  0.00  0.00     0.180 C 
ATOM     15  N   UNL d   1      41.343  -7.208  -2.115  0.00  0.00    -0.126 NA
BRANCH  15  16
ATOM     16  O   UNL d   1      42.346  -7.611  -2.993  0.00  0.00    -0.261 OA
ATOM     17  C   UNL d   1      43.448  -8.036  -2.166  0.00  0.00     0.240 C 
ENDBRANCH  15  16
BRANCH  14  18
ATOM     18  C   UNL d   1      39.361  -7.553  -0.953  0.00  0.00     0.102 A 
ATOM     19  N   UNL d   1      39.343  -8.112   0.320  0.00  0.00    -0.222 NA
ATOM     20  C   UNL d   1      38.514  -7.457   1.091  0.00  0.00     0.164 A 
ATOM     21  S   UNL d   1      37.625  -6.205   0.328  0.00  0.00    -0.062 SA
ATOM     22  C   UNL d   1      38.450  -6.526  -1.137  0.00  0.00     0.087 A 
BRANCH  20  23
ATOM     23  N   UNL d   1      38.361  -7.729   2.393  0.00  0.00    -0.378 N 
ATOM     24  H   UNL d   1      38.755  -8.577   2.776  0.00  0.00     0.158 HD
ATOM     25  H   UNL d   1      38.307  -6.940   3.025  0.00  0.00     0.158 HD
ENDBRANCH  20  23
ENDBRANCH  14  18
ENDBRANCH  11  14
ENDBRANCH   5  10
BRANCH   7  26
ATOM     26  C   UNL d   1      36.347  -6.192  -7.497  0.00  0.00     0.194 C 
ATOM     27  OXT UNL d   1      36.276  -4.975  -7.409  0.00  0.00    -0.645 OA
BRANCH  26  28
ATOM     28  O   UNL d   1      35.232  -6.942  -7.616  0.00  0.00    -0.772 OA
ATOM     29  H   UNL d   1      34.920  -7.373  -6.792  0.00  0.00     0.167 HD
ENDBRANCH  26  28
ENDBRANCH   7  26
BRANCH   8  30
ATOM     30  C   UNL d   1      38.079  -6.832  -9.842  0.00  0.00     0.216 C 
BRANCH  30  31
ATOM     31  O   UNL d   1      39.088  -5.996 -10.427  0.00  0.00    -0.317 OA
BRANCH  31  32
ATOM     32  C   UNL d   1      38.662  -5.092 -11.347  0.00  0.00     0.255 C 
ATOM     33  O   UNL d   1      39.045  -3.934 -11.436  0.00  0.00    -0.266 OA
ATOM     34  C   UNL d   1      37.657  -5.724 -12.260  0.00  0.00     0.126 C 
ENDBRANCH  31  32
ENDBRANCH  30  31
ENDBRANCH   8  30
TORSDOF 10
ENDMDL
MODEL 8
REMARK VINA RESULT:      -6.7      2.942      8.381
REMARK  10 active torsions:
REMARK  status: ('A' for Active; 'I' for Inactive)
REMARK    1  A    between atoms: O_4  and  C_21 
REMARK    2  A    between atoms: O_4  and  C_26 
REMARK    3  A    between atoms: O_5  and  C_22 
REMARK    4  A    between atoms: O_8  and  N_12 
REMARK    5  A    between atoms: CA_16  and  N_11 
REMARK       I    between atoms: N_11  and  C_23 
REMARK    6  A    between atoms: N_14  and  C_29 
REMARK    7  A    between atoms: CA_18  and  C_22 
REMARK    8  A    between atoms: C_19  and  C_21 
REMARK    9  A    between atoms: C_23  and  C_24 
REMARK   10  A    between atoms: C_24  and  C_25 
ROOT
ATOM      1  S   UNL d   1      35.986  -6.223  -5.938  0.00  0.00    -0.136 SA
ATOM      2  O   UNL d   1      40.113  -6.623  -5.867  0.00  0.00    -0.271 OA
ATOM      3  N   UNL d   1      38.128  -7.738  -6.395  0.00  0.00    -0.293 N 
ATOM      4  C   UNL d   1      37.024  -7.631  -5.442  0.00  0.00     0.187 C 
ATOM      5  CA  UNL d   1      38.131  -7.367  -4.352  0.00  0.00     0.211 C 
ATOM      6  C   UNL d   1      39.023  -7.088  -5.588  0.00  0.00     0.251 C 
ATOM      7  CA  UNL d   1      37.983  -7.721  -7.761  0.00  0.00     0.117 C 
ATOM      8  C   UNL d   1      36.801  -7.382  -8.339  0.00  0.00    -0.013 C 
ATOM      9  C   UNL d   1      35.577  -6.954  -7.554  0.00  0.00     0.115 C 
ENDROOT
BRANCH   5  10
ATOM     10  N   UNL d   1      37.816  -6.365  -3.271  0.00  0.00    -0.339 N 
ATOM     11  C   UNL d   1      38.324  -6.654  -2.007  0.00  0.00     0.275 C 
ATOM     12  O   UNL d   1      38.101  -5.892  -1.065  0.00  0.00    -0.266 OA
ATOM     13  H   UNL d   1      37.431  -5.442  -3.453  0.00  0.00     0.163 HD
BRANCH  11  14
ATOM     14  C   UNL d   1      39.184  -7.886  -1.737  0.00  0.00     0.180 C 
ATOM     15  N   UNL d   1      38.810  -9.066  -1.334  0.00  0.00    -0.126 NA
BRANCH  15  16
ATOM     16  O   UNL d   1      37.447  -9.274  -1.140  0.00  0.00    -0.261 OA
ATOM     17  C   UNL d   1      36.996 -10.031  -2.281  0.00  0.00     0.240 C 
ENDBRANCH  15  16
BRANCH  14  18
ATOM     18  C   UNL d   1      40.641  -7.720  -1.819  0.00  0.00     0.102 A 
ATOM     19  N   UNL d   1      41.322  -6.877  -0.947  0.00  0.00    -0.222 NA
ATOM     20  C   UNL d   1      42.613  -7.005  -1.108  0.00  0.00     0.164 A 
ATOM     21  S   UNL d   1      43.101  -8.053  -2.375  0.00  0.00    -0.062 SA
ATOM     22  C   UNL d   1      41.459  -8.407  -2.701  0.00  0.00     0.087 A 
BRANCH  20  23
ATOM     23  N   UNL d   1      43.508  -6.371  -0.342  0.00  0.00    -0.378 N 
ATOM     24  H   UNL d   1      44.355  -6.846  -0.062  0.00  0.00     0.158 HD
ATOM     25  H   UNL d   1      43.581  -5.367  -0.454  0.00  0.00     0.158 HD
ENDBRANCH  20  23
ENDBRANCH  14  18
ENDBRANCH  11  14
ENDBRANCH   5  10
BRANCH   7  26
ATOM     26  C   UNL d   1      39.131  -8.237  -8.604  0.00  0.00     0.194 C 
ATOM     27  OXT UNL d   1      39.268  -9.412  -8.909  0.00  0.00    -0.645 OA
BRANCH  26  28
ATOM     28  O   UNL d   1      40.086  -7.331  -8.900  0.00  0.00    -0.772 OA
ATOM     29  H   UNL d   1      40.694  -7.579  -9.629  0.00  0.00     0.167 HD
ENDBRANCH  26  28
ENDBRANCH   7  26
BRANCH   8  30
ATOM     30  C   UNL d   1      36.574  -7.325  -9.844  0.00  0.00     0.216 C 
BRANCH  30  31
ATOM     31  O   UNL d   1      35.180  -7.490 -10.142  0.00  0.00    -0.317 OA
BRANCH  31  32
ATOM     32  C   UNL d   1      34.869  -8.444 -11.057  0.00  0.00     0.255 C 
ATOM     33  O   UNL d   1      33.757  -8.643 -11.527  0.00  0.00    -0.266 OA
ATOM     34  C   UNL d   1      36.096  -9.220 -11.427  0.00  0.00     0.126 C 
ENDBRANCH  31  32
ENDBRANCH  30  31
ENDBRANCH   8  30
TORSDOF 10
ENDMDL
MODEL 9
REMARK VINA RESULT:      -6.6      3.694      6.399
REMARK  10 active torsions:
REMARK  status: ('A' for Active; 'I' for Inactive)
REMARK    1  A    between atoms: O_4  and  C_21 
REMARK    2  A    between atoms: O_4  and  C_26 
REMARK    3  A    between atoms: O_5  and  C_22 
REMARK    4  A    between atoms: O_8  and  N_12 
REMARK    5  A    between atoms: CA_16  and  N_11 
REMARK       I    between atoms: N_11  and  C_23 
REMARK    6  A    between atoms: N_14  and  C_29 
REMARK    7  A    between atoms: CA_18  and  C_22 
REMARK    8  A    between atoms: C_19  and  C_21 
REMARK    9  A    between atoms: C_23  and  C_24 
REMARK   10  A    between atoms: C_24  and  C_25 
ROOT
ATOM      1  S   UNL d   1      38.437 -10.852  -3.793  0.00  0.00    -0.136 SA
ATOM      2  O   UNL d   1      40.054  -8.610  -0.702  0.00  0.00    -0.271 OA
ATOM      3  N   UNL d   1      39.005  -8.453  -2.784  0.00  0.00    -0.293 N 
ATOM      4  C   UNL d   1      39.468  -9.355  -3.838  0.00  0.00     0.187 C 
ATOM      5  CA  UNL d   1      40.837  -9.393  -3.059  0.00  0.00     0.211 C 
ATOM      6  C   UNL d   1      39.982  -8.822  -1.898  0.00  0.00     0.251 C 
ATOM      7  CA  UNL d   1      37.691  -8.112  -2.572  0.00  0.00     0.117 C 
ATOM      8  C   UNL d   1      36.683  -8.767  -3.205  0.00  0.00    -0.013 C 
ATOM      9  C   UNL d   1      36.902  -9.938  -4.142  0.00  0.00     0.115 C 
ENDROOT
BRANCH   5  10
ATOM     10  N   UNL d   1      41.577 -10.705  -3.020  0.00  0.00    -0.339 N 
ATOM     11  C   UNL d   1      42.873 -10.686  -3.530  0.00  0.00     0.275 C 
ATOM     12  O   UNL d   1      43.543 -11.721  -3.547  0.00  0.00    -0.266 OA
ATOM     13  H   UNL d   1      41.262 -11.515  -2.494  0.00  0.00     0.163 HD
BRANCH  11  14
ATOM     14  C   UNL d   1      43.523  -9.410  -4.058  0.00  0.00     0.180 C 
ATOM     15  N   UNL d   1      43.504  -8.928  -5.266  0.00  0.00    -0.126 NA
BRANCH  15  16
ATOM     16  O   UNL d   1      42.780  -9.631  -6.225  0.00  0.00    -0.261 OA
ATOM     17  C   UNL d   1      43.753 -10.153  -7.152  0.00  0.00     0.240 C 
ENDBRANCH  15  16
BRANCH  14  18
ATOM     18  C   UNL d   1      44.390  -8.665  -3.134  0.00  0.00     0.102 A 
ATOM     19  N   UNL d   1      43.858  -7.803  -2.182  0.00  0.00    -0.222 NA
ATOM     20  C   UNL d   1      44.799  -7.373  -1.383  0.00  0.00     0.164 A 
ATOM     21  S   UNL d   1      46.390  -7.878  -1.774  0.00  0.00    -0.062 SA
ATOM     22  C   UNL d   1      45.768  -8.788  -3.083  0.00  0.00     0.087 A 
BRANCH  20  23
ATOM     23  N   UNL d   1      44.554  -6.592  -0.324  0.00  0.00    -0.378 N 
ATOM     24  H   UNL d   1      43.674  -6.098  -0.258  0.00  0.00     0.158 HD
ATOM     25  H   UNL d   1      44.975  -6.866   0.556  0.00  0.00     0.158 HD
ENDBRANCH  20  23
ENDBRANCH  14  18
ENDBRANCH  11  14
ENDBRANCH   5  10
BRANCH   7  26
ATOM     26  C   UNL d   1      37.403  -6.886  -1.730  0.00  0.00     0.194 C 
ATOM     27  OXT UNL d   1      37.429  -5.746  -2.170  0.00  0.00    -0.645 OA
BRANCH  26  28
ATOM     28  O   UNL d   1      37.238  -7.113  -0.411  0.00  0.00    -0.772 OA
ATOM     29  H   UNL d   1      37.394  -6.343   0.176  0.00  0.00     0.167 HD
ENDBRANCH  26  28
ENDBRANCH   7  26
BRANCH   8  30
ATOM     30  C   UNL d   1      35.206  -8.454  -3.005  0.00  0.00     0.216 C 
BRANCH  30  31
ATOM     31  O   UNL d   1      34.786  -7.431  -3.920  0.00  0.00    -0.317 OA
BRANCH  31  32
ATOM     32  C   UNL d   1      33.990  -7.831  -4.946  0.00  0.00     0.255 C 
ATOM     33  O   UNL d   1      34.378  -8.177  -6.053  0.00  0.00    -0.266 OA
ATOM     34  C   UNL d   1      32.554  -7.803  -4.521  0.00  0.00     0.126 C 
ENDBRANCH  31  32
ENDBRANCH  30  31
ENDBRANCH   8  30
TORSDOF 10
ENDMDL
