MODEL 1
REMARK VINA RESULT:      -7.6      0.000      0.000
REMARK  10 active torsions:
REMARK  status: ('A' for Active; 'I' for Inactive)
REMARK    1  A    between atoms: O_4  and  C_21 
REMARK    2  A    between atoms: O_4  and  C_26 
REMARK    3  A    between atoms: O_5  and  C_22 
REMARK    4  A    between atoms: O_8  and  N_12 
REMARK    5  A    between atoms: CA_16  and  N_11 
REMARK       I    between atoms: N_11  and  C_23 
REMARK    6  A    between atoms: N_14  and  C_29 
REMARK    7  A    between atoms: CA_18  and  C_22 
REMARK    8  A    between atoms: C_19  and  C_21 
REMARK    9  A    between atoms: C_23  and  C_24 
REMARK   10  A    between atoms: C_24  and  C_25 
ROOT
ATOM      1  S   UNL d   1      38.617  -9.643  -1.947  0.00  0.00    -0.136 SA
ATOM      2  O   UNL d   1      41.974  -7.368  -2.821  0.00  0.00    -0.271 OA
ATOM      3  N   UNL d   1      39.756  -7.244  -2.131  0.00  0.00    -0.293 N 
ATOM      4  C   UNL d   1      38.778  -8.058  -2.836  0.00  0.00     0.187 C 
ATOM      5  CA  UNL d   1      39.766  -8.011  -4.056  0.00  0.00     0.211 C 
ATOM      6  C   UNL d   1      40.793  -7.552  -2.964  0.00  0.00     0.251 C 
ATOM      7  CA  UNL d   1      39.724  -7.006  -0.781  0.00  0.00     0.117 C 
ATOM      8  C   UNL d   1      38.913  -7.720   0.038  0.00  0.00    -0.013 C 
ATOM      9  C   UNL d   1      37.999  -8.841  -0.439  0.00  0.00     0.115 C 
ENDROOT
BRANCH   5  10
ATOM     10  N   UNL d   1      39.881  -9.259  -4.863  0.00  0.00    -0.339 N 
ATOM     11  C   UNL d   1      39.180  -9.335  -6.079  0.00  0.00     0.275 C 
ATOM     12  O   UNL d   1      39.226 -10.341  -6.781  0.00  0.00    -0.266 OA
ATOM     13  H   UNL d   1      40.662  -9.905  -4.739  0.00  0.00     0.163 HD
BRANCH  11  14
ATOM     14  C   UNL d   1      38.291  -8.130  -6.463  0.00  0.00     0.180 C 
ATOM     15  N   UNL d   1      38.625  -7.135  -7.240  0.00  0.00    -0.126 NA
BRANCH  15  16
ATOM     16  O   UNL d   1      39.926  -7.148  -7.737  0.00  0.00    -0.261 OA
ATOM     17  C   UNL d   1      39.852  -7.566  -9.107  0.00  0.00     0.240 C 
ENDBRANCH  15  16
BRANCH  14  18
ATOM     18  C   UNL d   1      36.952  -7.987  -5.896  0.00  0.00     0.102 A 
ATOM     19  N   UNL d   1      36.408  -8.952  -5.054  0.00  0.00    -0.222 NA
ATOM     20  C   UNL d   1      35.282  -8.518  -4.544  0.00  0.00     0.164 A 
ATOM     21  S   UNL d   1      34.758  -6.978  -5.085  0.00  0.00    -0.062 SA
ATOM     22  C   UNL d   1      36.159  -6.858  -6.052  0.00  0.00     0.087 A 
BRANCH  20  23
ATOM     23  N   UNL d   1      34.587  -9.212  -3.638  0.00  0.00    -0.378 N 
ATOM     24  H   UNL d   1      33.591  -9.049  -3.559  0.00  0.00     0.158 HD
ATOM     25  H   UNL d   1      34.882 -10.164  -3.461  0.00  0.00     0.158 HD
ENDBRANCH  20  23
ENDBRANCH  14  18
ENDBRANCH  11  14
ENDBRANCH   5  10
BRANCH   7  26
ATOM     26  C   UNL d   1      40.511  -5.820  -0.248  0.00  0.00     0.194 C 
ATOM     27  OXT UNL d   1      39.990  -4.769   0.099  0.00  0.00    -0.645 OA
BRANCH  26  28
ATOM     28  O   UNL d   1      41.848  -5.946  -0.318  0.00  0.00    -0.772 OA
ATOM     29  H   UNL d   1      42.176  -6.786  -0.712  0.00  0.00     0.167 HD
ENDBRANCH  26  28
ENDBRANCH   7  26
BRANCH   8  30
ATOM     30  C   UNL d   1      38.849  -7.528   1.546  0.00  0.00     0.216 C 
BRANCH  30  31
ATOM     31  O   UNL d   1      37.533  -7.093   1.929  0.00  0.00    -0.317 OA
BRANCH  31  32
ATOM     32  C   UNL d   1      37.030  -7.625   3.074  0.00  0.00     0.255 C 
ATOM     33  O   UNL d   1      36.344  -7.031   3.891  0.00  0.00    -0.266 OA
ATOM     34  C   UNL d   1      37.428  -9.064   3.188  0.00  0.00     0.126 C 
ENDBRANCH  31  32
ENDBRANCH  30  31
ENDBRANCH   8  30
TORSDOF 10
ENDMDL
MODEL 2
REMARK VINA RESULT:      -7.2      3.598      6.344
REMARK  10 active torsions:
REMARK  status: ('A' for Active; 'I' for Inactive)
REMARK    1  A    between atoms: O_4  and  C_21 
REMARK    2  A    between atoms: O_4  and  C_26 
REMARK    3  A    between atoms: O_5  and  C_22 
REMARK    4  A    between atoms: O_8  and  N_12 
REMARK    5  A    between atoms: CA_16  and  N_11 
REMARK       I    between atoms: N_11  and  C_23 
REMARK    6  A    between atoms: N_14  and  C_29 
REMARK    7  A    between atoms: CA_18  and  C_22 
REMARK    8  A    between atoms: C_19  and  C_21 
REMARK    9  A    between atoms: C_23  and  C_24 
REMARK   10  A    between atoms: C_24  and  C_25 
ROOT
ATOM      1  S   UNL d   1      38.347 -10.909  -3.754  0.00  0.00    -0.136 SA
ATOM      2  O   UNL d   1      39.961  -8.624  -0.691  0.00  0.00    -0.271 OA
ATOM      3  N   UNL d   1      38.931  -8.504  -2.773  0.00  0.00    -0.293 N 
ATOM      4  C   UNL d   1      39.390  -9.412  -3.812  0.00  0.00     0.187 C 
ATOM      5  CA  UNL d   1      40.754  -9.452  -3.036  0.00  0.00     0.211 C 
ATOM      6  C   UNL d   1      39.892  -8.858  -1.870  0.00  0.00     0.251 C 
ATOM      7  CA  UNL d   1      37.621  -8.138  -2.599  0.00  0.00     0.117 C 
ATOM      8  C   UNL d   1      36.619  -8.795  -3.234  0.00  0.00    -0.013 C 
ATOM      9  C   UNL d   1      36.837  -9.985  -4.159  0.00  0.00     0.115 C 
ENDROOT
BRANCH   5  10
ATOM     10  N   UNL d   1      41.454 -10.768  -2.994  0.00  0.00    -0.339 N 
ATOM     11  C   UNL d   1      42.816 -10.812  -3.336  0.00  0.00     0.275 C 
ATOM     12  O   UNL d   1      43.443 -11.867  -3.333  0.00  0.00    -0.266 OA
ATOM     13  H   UNL d   1      41.090 -11.548  -2.445  0.00  0.00     0.163 HD
BRANCH  11  14
ATOM     14  C   UNL d   1      43.477  -9.489  -3.789  0.00  0.00     0.180 C 
ATOM     15  N   UNL d   1      43.425  -8.964  -4.983  0.00  0.00    -0.126 NA
BRANCH  15  16
ATOM     16  O   UNL d   1      42.737  -9.694  -5.950  0.00  0.00    -0.261 OA
ATOM     17  C   UNL d   1      41.895  -8.772  -6.656  0.00  0.00     0.240 C 
ENDBRANCH  15  16
BRANCH  14  18
ATOM     18  C   UNL d   1      44.307  -8.721  -2.863  0.00  0.00     0.102 A 
ATOM     19  N   UNL d   1      43.769  -7.721  -2.058  0.00  0.00    -0.222 NA
ATOM     20  C   UNL d   1      44.668  -7.304  -1.201  0.00  0.00     0.164 A 
ATOM     21  S   UNL d   1      46.223  -8.012  -1.343  0.00  0.00    -0.062 SA
ATOM     22  C   UNL d   1      45.650  -8.978  -2.626  0.00  0.00     0.087 A 
BRANCH  20  23
ATOM     23  N   UNL d   1      44.396  -6.403  -0.254  0.00  0.00    -0.378 N 
ATOM     24  H   UNL d   1      43.552  -5.850  -0.335  0.00  0.00     0.158 HD
ATOM     25  H   UNL d   1      44.668  -6.633   0.693  0.00  0.00     0.158 HD
ENDBRANCH  20  23
ENDBRANCH  14  18
ENDBRANCH  11  14
ENDBRANCH   5  10
BRANCH   7  26
ATOM     26  C   UNL d   1      37.333  -6.882  -1.794  0.00  0.00     0.194 C 
ATOM     27  OXT UNL d   1      36.953  -6.901  -0.631  0.00  0.00    -0.645 OA
BRANCH  26  28
ATOM     28  O   UNL d   1      37.383  -5.733  -2.492  0.00  0.00    -0.772 OA
ATOM     29  H   UNL d   1      38.200  -5.593  -3.021  0.00  0.00     0.167 HD
ENDBRANCH  26  28
ENDBRANCH   7  26
BRANCH   8  30
ATOM     30  C   UNL d   1      35.145  -8.460  -3.064  0.00  0.00     0.216 C 
BRANCH  30  31
ATOM     31  O   UNL d   1      34.556  -8.176  -4.345  0.00  0.00    -0.317 OA
BRANCH  31  32
ATOM     32  C   UNL d   1      34.956  -7.027  -4.952  0.00  0.00     0.255 C 
ATOM     33  O   UNL d   1      35.087  -5.943  -4.404  0.00  0.00    -0.266 OA
ATOM     34  C   UNL d   1      35.229  -7.282  -6.402  0.00  0.00     0.126 C 
ENDBRANCH  31  32
ENDBRANCH  30  31
ENDBRANCH   8  30
TORSDOF 10
ENDMDL
MODEL 3
REMARK VINA RESULT:      -7.1      2.743      8.295
REMARK  10 active torsions:
REMARK  status: ('A' for Active; 'I' for Inactive)
REMARK    1  A    between atoms: O_4  and  C_21 
REMARK    2  A    between atoms: O_4  and  C_26 
REMARK    3  A    between atoms: O_5  and  C_22 
REMARK    4  A    between atoms: O_8  and  N_12 
REMARK    5  A    between atoms: CA_16  and  N_11 
REMARK       I    between atoms: N_11  and  C_23 
REMARK    6  A    between atoms: N_14  and  C_29 
REMARK    7  A    between atoms: CA_18  and  C_22 
REMARK    8  A    between atoms: C_19  and  C_21 
REMARK    9  A    between atoms: C_23  and  C_24 
REMARK   10  A    between atoms: C_24  and  C_25 
ROOT
ATOM      1  S   UNL d   1      36.086  -6.253  -5.116  0.00  0.00    -0.136 SA
ATOM      2  O   UNL d   1      40.209  -6.489  -5.506  0.00  0.00    -0.271 OA
ATOM      3  N   UNL d   1      38.228  -7.665  -5.827  0.00  0.00    -0.293 N 
ATOM      4  C   UNL d   1      37.235  -7.627  -4.766  0.00  0.00     0.187 C 
ATOM      5  CA  UNL d   1      38.432  -7.336  -3.792  0.00  0.00     0.211 C 
ATOM      6  C   UNL d   1      39.184  -6.991  -5.123  0.00  0.00     0.251 C 
ATOM      7  CA  UNL d   1      37.921  -7.660  -7.164  0.00  0.00     0.117 C 
ATOM      8  C   UNL d   1      36.669  -7.368  -7.594  0.00  0.00    -0.013 C 
ATOM      9  C   UNL d   1      35.516  -7.004  -6.669  0.00  0.00     0.115 C 
ENDROOT
BRANCH   5  10
ATOM     10  N   UNL d   1      38.168  -6.371  -2.687  0.00  0.00    -0.339 N 
ATOM     11  C   UNL d   1      38.845  -6.548  -1.468  0.00  0.00     0.275 C 
ATOM     12  O   UNL d   1      38.660  -5.793  -0.518  0.00  0.00    -0.266 OA
ATOM     13  H   UNL d   1      37.780  -5.444  -2.870  0.00  0.00     0.163 HD
BRANCH  11  14
ATOM     14  C   UNL d   1      39.779  -7.774  -1.347  0.00  0.00     0.180 C 
ATOM     15  N   UNL d   1      39.425  -8.992  -1.037  0.00  0.00    -0.126 NA
BRANCH  15  16
ATOM     16  O   UNL d   1      38.076  -9.189  -0.748  0.00  0.00    -0.261 OA
ATOM     17  C   UNL d   1      37.570 -10.125  -1.710  0.00  0.00     0.240 C 
ENDBRANCH  15  16
BRANCH  14  18
ATOM     18  C   UNL d   1      41.222  -7.628  -1.527  0.00  0.00     0.102 A 
ATOM     19  N   UNL d   1      41.986  -6.830  -0.681  0.00  0.00    -0.222 NA
ATOM     20  C   UNL d   1      43.260  -6.998  -0.937  0.00  0.00     0.164 A 
ATOM     21  S   UNL d   1      43.630  -8.047  -2.241  0.00  0.00    -0.062 SA
ATOM     22  C   UNL d   1      41.963  -8.332  -2.466  0.00  0.00     0.087 A 
BRANCH  20  23
ATOM     23  N   UNL d   1      44.223  -6.414  -0.218  0.00  0.00    -0.378 N 
ATOM     24  H   UNL d   1      44.535  -5.489  -0.484  0.00  0.00     0.158 HD
ATOM     25  H   UNL d   1      44.234  -6.603   0.776  0.00  0.00     0.158 HD
ENDBRANCH  20  23
ENDBRANCH  14  18
ENDBRANCH  11  14
ENDBRANCH   5  10
BRANCH   7  26
ATOM     26  C   UNL d   1      38.983  -8.137  -8.140  0.00  0.00     0.194 C 
ATOM     27  OXT UNL d   1      39.788  -7.388  -8.678  0.00  0.00    -0.645 OA
BRANCH  26  28
ATOM     28  O   UNL d   1      38.890  -9.431  -8.496  0.00  0.00    -0.772 OA
ATOM     29  H   UNL d   1      39.031  -9.621  -9.451  0.00  0.00     0.167 HD
ENDBRANCH  26  28
ENDBRANCH   7  26
BRANCH   8  30
ATOM     30  C   UNL d   1      36.268  -7.317  -9.061  0.00  0.00     0.216 C 
BRANCH  30  31
ATOM     31  O   UNL d   1      36.260  -5.954  -9.520  0.00  0.00    -0.317 OA
BRANCH  31  32
ATOM     32  C   UNL d   1      37.238  -5.607 -10.398  0.00  0.00     0.255 C 
ATOM     33  O   UNL d   1      38.242  -4.966 -10.126  0.00  0.00    -0.266 OA
ATOM     34  C   UNL d   1      36.916  -6.138 -11.761  0.00  0.00     0.126 C 
ENDBRANCH  31  32
ENDBRANCH  30  31
ENDBRANCH   8  30
TORSDOF 10
ENDMDL
MODEL 4
REMARK VINA RESULT:      -7.1      1.967      2.755
REMARK  10 active torsions:
REMARK  status: ('A' for Active; 'I' for Inactive)
REMARK    1  A    between atoms: O_4  and  C_21 
REMARK    2  A    between atoms: O_4  and  C_26 
REMARK    3  A    between atoms: O_5  and  C_22 
REMARK    4  A    between atoms: O_8  and  N_12 
REMARK    5  A    between atoms: CA_16  and  N_11 
REMARK       I    between atoms: N_11  and  C_23 
REMARK    6  A    between atoms: N_14  and  C_29 
REMARK    7  A    between atoms: CA_18  and  C_22 
REMARK    8  A    between atoms: C_19  and  C_21 
REMARK    9  A    between atoms: C_23  and  C_24 
REMARK   10  A    between atoms: C_24  and  C_25 
ROOT
ATOM      1  S   UNL d   1      37.469  -9.062  -2.791  0.00  0.00    -0.136 SA
ATOM      2  O   UNL d   1      41.591  -8.599  -2.728  0.00  0.00    -0.271 OA
ATOM      3  N   UNL d   1      39.575  -7.452  -2.549  0.00  0.00    -0.293 N 
ATOM      4  C   UNL d   1      38.529  -7.762  -3.510  0.00  0.00     0.187 C 
ATOM      5  CA  UNL d   1      39.684  -8.220  -4.470  0.00  0.00     0.211 C 
ATOM      6  C   UNL d   1      40.524  -8.232  -3.146  0.00  0.00     0.251 C 
ATOM      7  CA  UNL d   1      39.342  -7.168  -1.227  0.00  0.00     0.117 C 
ATOM      8  C   UNL d   1      38.132  -7.402  -0.663  0.00  0.00    -0.013 C 
ATOM      9  C   UNL d   1      36.949  -8.004  -1.410  0.00  0.00     0.115 C 
ENDROOT
BRANCH   5  10
ATOM     10  N   UNL d   1      39.407  -9.417  -5.315  0.00  0.00    -0.339 N 
ATOM     11  C   UNL d   1      39.552  -9.300  -6.708  0.00  0.00     0.275 C 
ATOM     12  O   UNL d   1      39.326 -10.246  -7.456  0.00  0.00    -0.266 OA
ATOM     13  H   UNL d   1      39.429 -10.360  -4.926  0.00  0.00     0.163 HD
BRANCH  11  14
ATOM     14  C   UNL d   1      39.935  -7.910  -7.267  0.00  0.00     0.180 C 
ATOM     15  N   UNL d   1      41.119  -7.360  -7.234  0.00  0.00    -0.126 NA
BRANCH  15  16
ATOM     16  O   UNL d   1      42.121  -8.086  -6.594  0.00  0.00    -0.261 OA
ATOM     17  C   UNL d   1      43.079  -8.458  -7.595  0.00  0.00     0.240 C 
ENDBRANCH  15  16
BRANCH  14  18
ATOM     18  C   UNL d   1      38.918  -7.041  -7.856  0.00  0.00     0.102 A 
ATOM     19  N   UNL d   1      38.996  -6.617  -9.179  0.00  0.00    -0.222 NA
ATOM     20  C   UNL d   1      37.892  -6.000  -9.517  0.00  0.00     0.164 A 
ATOM     21  S   UNL d   1      36.726  -5.815  -8.274  0.00  0.00    -0.062 SA
ATOM     22  C   UNL d   1      37.755  -6.654  -7.204  0.00  0.00     0.087 A 
BRANCH  20  23
ATOM     23  N   UNL d   1      37.664  -5.559 -10.757  0.00  0.00    -0.378 N 
ATOM     24  H   UNL d   1      38.314  -5.811 -11.491  0.00  0.00     0.158 HD
ATOM     25  H   UNL d   1      36.698  -5.480 -11.048  0.00  0.00     0.158 HD
ENDBRANCH  20  23
ENDBRANCH  14  18
ENDBRANCH  11  14
ENDBRANCH   5  10
BRANCH   7  26
ATOM     26  C   UNL d   1      40.431  -6.448  -0.450  0.00  0.00     0.194 C 
ATOM     27  OXT UNL d   1      40.472  -5.232  -0.320  0.00  0.00    -0.645 OA
BRANCH  26  28
ATOM     28  O   UNL d   1      41.444  -7.229  -0.031  0.00  0.00    -0.772 OA
ATOM     29  H   UNL d   1      42.122  -6.783   0.525  0.00  0.00     0.167 HD
ENDBRANCH  26  28
ENDBRANCH   7  26
BRANCH   8  30
ATOM     30  C   UNL d   1      37.814  -7.138   0.801  0.00  0.00     0.216 C 
BRANCH  30  31
ATOM     31  O   UNL d   1      38.001  -8.340   1.568  0.00  0.00    -0.317 OA
BRANCH  31  32
ATOM     32  C   UNL d   1      38.164  -8.183   2.908  0.00  0.00     0.255 C 
ATOM     33  O   UNL d   1      39.171  -7.762   3.456  0.00  0.00    -0.266 OA
ATOM     34  C   UNL d   1      36.915  -8.590   3.627  0.00  0.00     0.126 C 
ENDBRANCH  31  32
ENDBRANCH  30  31
ENDBRANCH   8  30
TORSDOF 10
ENDMDL
MODEL 5
REMARK VINA RESULT:      -6.9      2.640      4.166
REMARK  10 active torsions:
REMARK  status: ('A' for Active; 'I' for Inactive)
REMARK    1  A    between atoms: O_4  and  C_21 
REMARK    2  A    between atoms: O_4  and  C_26 
REMARK    3  A    between atoms: O_5  and  C_22 
REMARK    4  A    between atoms: O_8  and  N_12 
REMARK    5  A    between atoms: CA_16  and  N_11 
REMARK       I    between atoms: N_11  and  C_23 
REMARK    6  A    between atoms: N_14  and  C_29 
REMARK    7  A    between atoms: CA_18  and  C_22 
REMARK    8  A    between atoms: C_19  and  C_21 
REMARK    9  A    between atoms: C_23  and  C_24 
REMARK   10  A    between atoms: C_24  and  C_25 
ROOT
ATOM      1  S   UNL d   1      37.407  -8.334  -3.132  0.00  0.00    -0.136 SA
ATOM      2  O   UNL d   1      41.433  -9.044  -2.430  0.00  0.00    -0.271 OA
ATOM      3  N   UNL d   1      39.840  -7.363  -2.659  0.00  0.00    -0.293 N 
ATOM      4  C   UNL d   1      38.890  -7.472  -3.754  0.00  0.00     0.187 C 
ATOM      5  CA  UNL d   1      39.978  -8.341  -4.480  0.00  0.00     0.211 C 
ATOM      6  C   UNL d   1      40.588  -8.441  -3.040  0.00  0.00     0.251 C 
ATOM      7  CA  UNL d   1      39.524  -6.880  -1.416  0.00  0.00     0.117 C 
ATOM      8  C   UNL d   1      38.233  -6.699  -1.042  0.00  0.00    -0.013 C 
ATOM      9  C   UNL d   1      37.038  -7.024  -1.928  0.00  0.00     0.115 C 
ENDROOT
BRANCH   5  10
ATOM     10  N   UNL d   1      39.478  -9.499  -5.276  0.00  0.00    -0.339 N 
ATOM     11  C   UNL d   1      39.802  -9.560  -6.642  0.00  0.00     0.275 C 
ATOM     12  O   UNL d   1      39.409 -10.481  -7.352  0.00  0.00    -0.266 OA
ATOM     13  H   UNL d   1      39.197 -10.372  -4.828  0.00  0.00     0.163 HD
BRANCH  11  14
ATOM     14  C   UNL d   1      40.612  -8.383  -7.234  0.00  0.00     0.180 C 
ATOM     15  N   UNL d   1      40.133  -7.239  -7.641  0.00  0.00    -0.126 NA
BRANCH  15  16
ATOM     16  O   UNL d   1      38.750  -7.087  -7.571  0.00  0.00    -0.261 OA
ATOM     17  C   UNL d   1      38.272  -6.940  -8.915  0.00  0.00     0.240 C 
ENDBRANCH  15  16
BRANCH  14  18
ATOM     18  C   UNL d   1      42.053  -8.505  -7.442  0.00  0.00     0.102 A 
ATOM     19  N   UNL d   1      42.801  -7.473  -8.000  0.00  0.00    -0.222 NA
ATOM     20  C   UNL d   1      44.078  -7.753  -7.923  0.00  0.00     0.164 A 
ATOM     21  S   UNL d   1      44.471  -9.283  -7.256  0.00  0.00    -0.062 SA
ATOM     22  C   UNL d   1      42.810  -9.589  -7.017  0.00  0.00     0.087 A 
BRANCH  20  23
ATOM     23  N   UNL d   1      45.028  -6.898  -8.311  0.00  0.00    -0.378 N 
ATOM     24  H   UNL d   1      45.955  -7.255  -8.505  0.00  0.00     0.158 HD
ATOM     25  H   UNL d   1      44.738  -6.119  -8.889  0.00  0.00     0.158 HD
ENDBRANCH  20  23
ENDBRANCH  14  18
ENDBRANCH  11  14
ENDBRANCH   5  10
BRANCH   7  26
ATOM     26  C   UNL d   1      40.660  -6.413  -0.522  0.00  0.00     0.194 C 
ATOM     27  OXT UNL d   1      40.983  -5.238  -0.403  0.00  0.00    -0.645 OA
BRANCH  26  28
ATOM     28  O   UNL d   1      41.395  -7.397   0.027  0.00  0.00    -0.772 OA
ATOM     29  H   UNL d   1      40.960  -8.278   0.070  0.00  0.00     0.167 HD
ENDBRANCH  26  28
ENDBRANCH   7  26
BRANCH   8  30
ATOM     30  C   UNL d   1      37.811  -6.194   0.330  0.00  0.00     0.216 C 
BRANCH  30  31
ATOM     31  O   UNL d   1      37.298  -7.283   1.117  0.00  0.00    -0.317 OA
BRANCH  31  32
ATOM     32  C   UNL d   1      38.057  -7.676   2.173  0.00  0.00     0.255 C 
ATOM     33  O   UNL d   1      39.261  -7.504   2.285  0.00  0.00    -0.266 OA
ATOM     34  C   UNL d   1      37.198  -8.346   3.200  0.00  0.00     0.126 C 
ENDBRANCH  31  32
ENDBRANCH  30  31
ENDBRANCH   8  30
TORSDOF 10
ENDMDL
MODEL 6
REMARK VINA RESULT:      -6.7      3.100      8.127
REMARK  10 active torsions:
REMARK  status: ('A' for Active; 'I' for Inactive)
REMARK    1  A    between atoms: O_4  and  C_21 
REMARK    2  A    between atoms: O_4  and  C_26 
REMARK    3  A    between atoms: O_5  and  C_22 
REMARK    4  A    between atoms: O_8  and  N_12 
REMARK    5  A    between atoms: CA_16  and  N_11 
REMARK       I    between atoms: N_11  and  C_23 
REMARK    6  A    between atoms: N_14  and  C_29 
REMARK    7  A    between atoms: CA_18  and  C_22 
REMARK    8  A    between atoms: C_19  and  C_21 
REMARK    9  A    between atoms: C_23  and  C_24 
REMARK   10  A    between atoms: C_24  and  C_25 
ROOT
ATOM      1  S   UNL d   1      39.948  -8.959  -6.873  0.00  0.00    -0.136 SA
ATOM      2  O   UNL d   1      36.234  -8.547  -5.071  0.00  0.00    -0.271 OA
ATOM      3  N   UNL d   1      37.992  -7.362  -6.029  0.00  0.00    -0.293 N 
ATOM      4  C   UNL d   1      39.347  -7.737  -5.658  0.00  0.00     0.187 C 
ATOM      5  CA  UNL d   1      38.723  -8.289  -4.327  0.00  0.00     0.211 C 
ATOM      6  C   UNL d   1      37.385  -8.202  -5.139  0.00  0.00     0.251 C 
ATOM      7  CA  UNL d   1      37.625  -6.966  -7.289  0.00  0.00     0.117 C 
ATOM      8  C   UNL d   1      38.456  -7.135  -8.347  0.00  0.00    -0.013 C 
ATOM      9  C   UNL d   1      39.831  -7.781  -8.252  0.00  0.00     0.115 C 
ENDROOT
BRANCH   5  10
ATOM     10  N   UNL d   1      39.314  -9.549  -3.791  0.00  0.00    -0.339 N 
ATOM     11  C   UNL d   1      40.045  -9.487  -2.592  0.00  0.00     0.275 C 
ATOM     12  O   UNL d   1      40.565 -10.488  -2.108  0.00  0.00    -0.266 OA
ATOM     13  H   UNL d   1      38.960 -10.465  -4.069  0.00  0.00     0.163 HD
BRANCH  11  14
ATOM     14  C   UNL d   1      40.229  -8.095  -1.943  0.00  0.00     0.180 C 
ATOM     15  N   UNL d   1      41.203  -7.256  -2.170  0.00  0.00    -0.126 NA
BRANCH  15  16
ATOM     16  O   UNL d   1      42.192  -7.681  -3.054  0.00  0.00    -0.261 OA
ATOM     17  C   UNL d   1      43.326  -8.069  -2.265  0.00  0.00     0.240 C 
ENDBRANCH  15  16
BRANCH  14  18
ATOM     18  C   UNL d   1      39.293  -7.623  -0.925  0.00  0.00     0.102 A 
ATOM     19  N   UNL d   1      39.274  -8.165   0.357  0.00  0.00    -0.222 NA
ATOM     20  C   UNL d   1      38.479  -7.464   1.127  0.00  0.00     0.164 A 
ATOM     21  S   UNL d   1      37.648  -6.172   0.368  0.00  0.00    -0.062 SA
ATOM     22  C   UNL d   1      38.433  -6.548  -1.099  0.00  0.00     0.087 A 
BRANCH  20  23
ATOM     23  N   UNL d   1      38.335  -7.715   2.431  0.00  0.00    -0.378 N 
ATOM     24  H   UNL d   1      37.850  -7.038   3.006  0.00  0.00     0.158 HD
ATOM     25  H   UNL d   1      38.204  -8.681   2.703  0.00  0.00     0.158 HD
ENDBRANCH  20  23
ENDBRANCH  14  18
ENDBRANCH  11  14
ENDBRANCH   5  10
BRANCH   7  26
ATOM     26  C   UNL d   1      36.323  -6.197  -7.444  0.00  0.00     0.194 C 
ATOM     27  OXT UNL d   1      36.241  -4.982  -7.326  0.00  0.00    -0.645 OA
BRANCH  26  28
ATOM     28  O   UNL d   1      35.224  -6.961  -7.577  0.00  0.00    -0.772 OA
ATOM     29  H   UNL d   1      35.145  -7.447  -8.429  0.00  0.00     0.167 HD
ENDBRANCH  26  28
ENDBRANCH   7  26
BRANCH   8  30
ATOM     30  C   UNL d   1      38.102  -6.745  -9.775  0.00  0.00     0.216 C 
BRANCH  30  31
ATOM     31  O   UNL d   1      39.274  -6.269 -10.458  0.00  0.00    -0.317 OA
BRANCH  31  32
ATOM     32  C   UNL d   1      39.076  -5.717 -11.684  0.00  0.00     0.255 C 
ATOM     33  O   UNL d   1      39.940  -5.208 -12.381  0.00  0.00    -0.266 OA
ATOM     34  C   UNL d   1      37.635  -5.834 -12.073  0.00  0.00     0.126 C 
ENDBRANCH  31  32
ENDBRANCH  30  31
ENDBRANCH   8  30
TORSDOF 10
ENDMDL
MODEL 7
REMARK VINA RESULT:      -6.7      3.731      5.616
REMARK  10 active torsions:
REMARK  status: ('A' for Active; 'I' for Inactive)
REMARK    1  A    between atoms: O_4  and  C_21 
REMARK    2  A    between atoms: O_4  and  C_26 
REMARK    3  A    between atoms: O_5  and  C_22 
REMARK    4  A    between atoms: O_8  and  N_12 
REMARK    5  A    between atoms: CA_16  and  N_11 
REMARK       I    between atoms: N_11  and  C_23 
REMARK    6  A    between atoms: N_14  and  C_29 
REMARK    7  A    between atoms: CA_18  and  C_22 
REMARK    8  A    between atoms: C_19  and  C_21 
REMARK    9  A    between atoms: C_23  and  C_24 
REMARK   10  A    between atoms: C_24  and  C_25 
ROOT
ATOM      1  S   UNL d   1      39.424  -7.072  -5.693  0.00  0.00    -0.136 SA
ATOM      2  O   UNL d   1      35.679  -6.093  -7.184  0.00  0.00    -0.271 OA
ATOM      3  N   UNL d   1      36.888  -7.765  -6.109  0.00  0.00    -0.293 N 
ATOM      4  C   UNL d   1      38.213  -8.078  -6.617  0.00  0.00     0.187 C 
ATOM      5  CA  UNL d   1      37.710  -7.518  -7.994  0.00  0.00     0.211 C 
ATOM      6  C   UNL d   1      36.578  -6.890  -7.111  0.00  0.00     0.251 C 
ATOM      7  CA  UNL d   1      36.556  -7.767  -4.779  0.00  0.00     0.117 C 
ATOM      8  C   UNL d   1      37.512  -7.819  -3.819  0.00  0.00    -0.013 C 
ATOM      9  C   UNL d   1      39.006  -7.858  -4.109  0.00  0.00     0.115 C 
ENDROOT
BRANCH   5  10
ATOM     10  N   UNL d   1      38.699  -6.738  -8.793  0.00  0.00    -0.339 N 
ATOM     11  C   UNL d   1      38.913  -7.104 -10.133  0.00  0.00     0.275 C 
ATOM     12  O   UNL d   1      39.723  -6.509 -10.837  0.00  0.00    -0.266 OA
ATOM     13  H   UNL d   1      38.978  -5.794  -8.522  0.00  0.00     0.163 HD
BRANCH  11  14
ATOM     14  C   UNL d   1      38.142  -8.334 -10.665  0.00  0.00     0.180 C 
ATOM     15  N   UNL d   1      38.512  -9.583 -10.572  0.00  0.00    -0.126 NA
BRANCH  15  16
ATOM     16  O   UNL d   1      39.745  -9.818  -9.968  0.00  0.00    -0.261 OA
ATOM     17  C   UNL d   1      39.518 -10.732  -8.886  0.00  0.00     0.240 C 
ENDBRANCH  15  16
BRANCH  14  18
ATOM     18  C   UNL d   1      36.894  -8.162 -11.406  0.00  0.00     0.102 A 
ATOM     19  N   UNL d   1      35.764  -8.924 -11.121  0.00  0.00    -0.222 NA
ATOM     20  C   UNL d   1      34.737  -8.468 -11.793  0.00  0.00     0.164 A 
ATOM     21  S   UNL d   1      35.056  -7.165 -12.859  0.00  0.00    -0.062 SA
ATOM     22  C   UNL d   1      36.688  -7.179 -12.364  0.00  0.00     0.087 A 
BRANCH  20  23
ATOM     23  N   UNL d   1      33.504  -8.964 -11.648  0.00  0.00    -0.378 N 
ATOM     24  H   UNL d   1      32.729  -8.473 -12.076  0.00  0.00     0.158 HD
ATOM     25  H   UNL d   1      33.412  -9.971 -11.621  0.00  0.00     0.158 HD
ENDBRANCH  20  23
ENDBRANCH  14  18
ENDBRANCH  11  14
ENDBRANCH   5  10
BRANCH   7  26
ATOM     26  C   UNL d   1      35.085  -7.858  -4.410  0.00  0.00     0.194 C 
ATOM     27  OXT UNL d   1      34.491  -8.919  -4.271  0.00  0.00    -0.645 OA
BRANCH  26  28
ATOM     28  O   UNL d   1      34.429  -6.684  -4.389  0.00  0.00    -0.772 OA
ATOM     29  H   UNL d   1      34.160  -6.331  -5.267  0.00  0.00     0.167 HD
ENDBRANCH  26  28
ENDBRANCH   7  26
BRANCH   8  30
ATOM     30  C   UNL d   1      37.217  -7.795  -2.326  0.00  0.00     0.216 C 
BRANCH  30  31
ATOM     31  O   UNL d   1      37.230  -6.440  -1.846  0.00  0.00    -0.317 OA
BRANCH  31  32
ATOM     32  C   UNL d   1      38.130  -6.154  -0.868  0.00  0.00     0.255 C 
ATOM     33  O   UNL d   1      39.321  -5.942  -1.039  0.00  0.00    -0.266 OA
ATOM     34  C   UNL d   1      37.447  -6.122   0.464  0.00  0.00     0.126 C 
ENDBRANCH  31  32
ENDBRANCH  30  31
ENDBRANCH   8  30
TORSDOF 10
ENDMDL
MODEL 8
REMARK VINA RESULT:      -6.6      4.064      7.691
REMARK  10 active torsions:
REMARK  status: ('A' for Active; 'I' for Inactive)
REMARK    1  A    between atoms: O_4  and  C_21 
REMARK    2  A    between atoms: O_4  and  C_26 
REMARK    3  A    between atoms: O_5  and  C_22 
REMARK    4  A    between atoms: O_8  and  N_12 
REMARK    5  A    between atoms: CA_16  and  N_11 
REMARK       I    between atoms: N_11  and  C_23 
REMARK    6  A    between atoms: N_14  and  C_29 
REMARK    7  A    between atoms: CA_18  and  C_22 
REMARK    8  A    between atoms: C_19  and  C_21 
REMARK    9  A    between atoms: C_23  and  C_24 
REMARK   10  A    between atoms: C_24  and  C_25 
ROOT
ATOM      1  S   UNL d   1      39.425  -7.373  -0.658  0.00  0.00    -0.136 SA
ATOM      2  O   UNL d   1      41.320  -7.113  -4.338  0.00  0.00    -0.271 OA
ATOM      3  N   UNL d   1      40.349  -8.598  -2.833  0.00  0.00    -0.293 N 
ATOM      4  C   UNL d   1      40.681  -8.452  -1.425  0.00  0.00     0.187 C 
ATOM      5  CA  UNL d   1      42.013  -7.777  -1.911  0.00  0.00     0.211 C 
ATOM      6  C   UNL d   1      41.233  -7.650  -3.265  0.00  0.00     0.251 C 
ATOM      7  CA  UNL d   1      39.107  -8.948  -3.295  0.00  0.00     0.117 C 
ATOM      8  C   UNL d   1      38.027  -8.943  -2.476  0.00  0.00    -0.013 C 
ATOM      9  C   UNL d   1      38.076  -8.538  -1.009  0.00  0.00     0.115 C 
ENDROOT
BRANCH   5  10
ATOM     10  N   UNL d   1      42.507  -6.627  -1.100  0.00  0.00    -0.339 N 
ATOM     11  C   UNL d   1      43.818  -6.677  -0.598  0.00  0.00     0.275 C 
ATOM     12  O   UNL d   1      44.276  -5.767   0.086  0.00  0.00    -0.266 OA
ATOM     13  H   UNL d   1      42.070  -5.706  -1.160  0.00  0.00     0.163 HD
BRANCH  11  14
ATOM     14  C   UNL d   1      44.637  -7.958  -0.879  0.00  0.00     0.180 C 
ATOM     15  N   UNL d   1      44.866  -8.933  -0.041  0.00  0.00    -0.126 NA
BRANCH  15  16
ATOM     16  O   UNL d   1      44.352  -8.776   1.244  0.00  0.00    -0.261 OA
ATOM     17  C   UNL d   1      45.451  -8.908   2.158  0.00  0.00     0.240 C 
ENDBRANCH  15  16
BRANCH  14  18
ATOM     18  C   UNL d   1      45.300  -8.146  -2.168  0.00  0.00     0.102 A 
ATOM     19  N   UNL d   1      46.183  -7.200  -2.680  0.00  0.00    -0.222 NA
ATOM     20  C   UNL d   1      46.773  -7.671  -3.750  0.00  0.00     0.164 A 
ATOM     21  S   UNL d   1      46.266  -9.227  -4.262  0.00  0.00    -0.062 SA
ATOM     22  C   UNL d   1      45.199  -9.300  -2.933  0.00  0.00     0.087 A 
BRANCH  20  23
ATOM     23  N   UNL d   1      47.730  -7.001  -4.399  0.00  0.00    -0.378 N 
ATOM     24  H   UNL d   1      48.266  -7.484  -5.109  0.00  0.00     0.158 HD
ATOM     25  H   UNL d   1      47.564  -6.019  -4.579  0.00  0.00     0.158 HD
ENDBRANCH  20  23
ENDBRANCH  14  18
ENDBRANCH  11  14
ENDBRANCH   5  10
BRANCH   7  26
ATOM     26  C   UNL d   1      38.999  -9.486  -4.712  0.00  0.00     0.194 C 
ATOM     27  OXT UNL d   1      39.244 -10.647  -5.011  0.00  0.00    -0.645 OA
BRANCH  26  28
ATOM     28  O   UNL d   1      38.755  -8.559  -5.657  0.00  0.00    -0.772 OA
ATOM     29  H   UNL d   1      38.246  -7.773  -5.358  0.00  0.00     0.167 HD
ENDBRANCH  26  28
ENDBRANCH   7  26
BRANCH   8  30
ATOM     30  C   UNL d   1      36.617  -9.293  -2.929  0.00  0.00     0.216 C 
BRANCH  30  31
ATOM     31  O   UNL d   1      36.117  -8.271  -3.808  0.00  0.00    -0.317 OA
BRANCH  31  32
ATOM     32  C   UNL d   1      34.770  -8.093  -3.823  0.00  0.00     0.255 C 
ATOM     33  O   UNL d   1      34.190  -7.092  -4.217  0.00  0.00    -0.266 OA
ATOM     34  C   UNL d   1      34.085  -9.316  -3.296  0.00  0.00     0.126 C 
ENDBRANCH  31  32
ENDBRANCH  30  31
ENDBRANCH   8  30
TORSDOF 10
ENDMDL
MODEL 9
REMARK VINA RESULT:      -6.5     15.700     18.200
REMARK  10 active torsions:
REMARK  status: ('A' for Active; 'I' for Inactive)
REMARK    1  A    between atoms: O_4  and  C_21 
REMARK    2  A    between atoms: O_4  and  C_26 
REMARK    3  A    between atoms: O_5  and  C_22 
REMARK    4  A    between atoms: O_8  and  N_12 
REMARK    5  A    between atoms: CA_16  and  N_11 
REMARK       I    between atoms: N_11  and  C_23 
REMARK    6  A    between atoms: N_14  and  C_29 
REMARK    7  A    between atoms: CA_18  and  C_22 
REMARK    8  A    between atoms: C_19  and  C_21 
REMARK    9  A    between atoms: C_23  and  C_24 
REMARK   10  A    between atoms: C_24  and  C_25 
ROOT
ATOM      1  S   UNL d   1      29.036   0.702 -16.877  0.00  0.00    -0.136 SA
ATOM      2  O   UNL d   1      27.335   0.476 -13.101  0.00  0.00    -0.271 OA
ATOM      3  N   UNL d   1      29.094  -0.300 -14.412  0.00  0.00    -0.293 N 
ATOM      4  C   UNL d   1      28.793  -0.727 -15.769  0.00  0.00     0.187 C 
ATOM      5  CA  UNL d   1      27.335  -1.000 -15.253  0.00  0.00     0.211 C 
ATOM      6  C   UNL d   1      27.791  -0.096 -14.057  0.00  0.00     0.251 C 
ATOM      7  CA  UNL d   1      30.240   0.362 -14.053  0.00  0.00     0.117 C 
ATOM      8  C   UNL d   1      31.067   0.888 -14.989  0.00  0.00    -0.013 C 
ATOM      9  C   UNL d   1      30.807   0.820 -16.488  0.00  0.00     0.115 C 
ENDROOT
BRANCH   5  10
ATOM     10  N   UNL d   1      26.227  -0.673 -16.196  0.00  0.00    -0.339 N 
ATOM     11  C   UNL d   1      25.096  -1.507 -16.214  0.00  0.00     0.275 C 
ATOM     12  O   UNL d   1      24.158  -1.296 -16.977  0.00  0.00    -0.266 OA
ATOM     13  H   UNL d   1      26.114   0.266 -16.581  0.00  0.00     0.163 HD
BRANCH  11  14
ATOM     14  C   UNL d   1      25.112  -2.745 -15.287  0.00  0.00     0.180 C 
ATOM     15  N   UNL d   1      25.678  -3.895 -15.537  0.00  0.00    -0.126 NA
BRANCH  15  16
ATOM     16  O   UNL d   1      26.290  -4.025 -16.782  0.00  0.00    -0.261 OA
ATOM     17  C   UNL d   1      27.250  -5.085 -16.672  0.00  0.00     0.240 C 
ENDBRANCH  15  16
BRANCH  14  18
ATOM     18  C   UNL d   1      24.399  -2.724 -14.011  0.00  0.00     0.102 A 
ATOM     19  N   UNL d   1      24.026  -3.898 -13.365  0.00  0.00    -0.222 NA
ATOM     20  C   UNL d   1      23.562  -3.624 -12.171  0.00  0.00     0.164 A 
ATOM     21  S   UNL d   1      23.466  -1.960 -11.769  0.00  0.00    -0.062 SA
ATOM     22  C   UNL d   1      24.128  -1.569 -13.291  0.00  0.00     0.087 A 
BRANCH  20  23
ATOM     23  N   UNL d   1      23.205  -4.573 -11.301  0.00  0.00    -0.378 N 
ATOM     24  H   UNL d   1      22.857  -4.294 -10.392  0.00  0.00     0.158 HD
ATOM     25  H   UNL d   1      22.789  -5.414 -11.681  0.00  0.00     0.158 HD
ENDBRANCH  20  23
ENDBRANCH  14  18
ENDBRANCH  11  14
ENDBRANCH   5  10
BRANCH   7  26
ATOM     26  C   UNL d   1      30.634   0.361 -12.586  0.00  0.00     0.194 C 
ATOM     27  OXT UNL d   1      31.510  -0.359 -12.125  0.00  0.00    -0.645 OA
BRANCH  26  28
ATOM     28  O   UNL d   1      29.851   1.106 -11.785  0.00  0.00    -0.772 OA
ATOM     29  H   UNL d   1      29.887   2.077 -11.938  0.00  0.00     0.167 HD
ENDBRANCH  26  28
ENDBRANCH   7  26
BRANCH   8  30
ATOM     30  C   UNL d   1      32.338   1.658 -14.661  0.00  0.00     0.216 C 
BRANCH  30  31
ATOM     31  O   UNL d   1      32.470   2.785 -15.544  0.00  0.00    -0.317 OA
BRANCH  31  32
ATOM     32  C   UNL d   1      32.447   4.014 -14.963  0.00  0.00     0.255 C 
ATOM     33  O   UNL d   1      32.059   4.257 -13.831  0.00  0.00    -0.266 OA
ATOM     34  C   UNL d   1      32.984   5.040 -15.913  0.00  0.00     0.126 C 
ENDBRANCH  31  32
ENDBRANCH  30  31
ENDBRANCH   8  30
TORSDOF 10
ENDMDL
