MODEL 1
REMARK VINA RESULT:      -7.1      0.000      0.000
REMARK  10 active torsions:
REMARK  status: ('A' for Active; 'I' for Inactive)
REMARK    1  A    between atoms: O_4  and  C_21 
REMARK    2  A    between atoms: O_4  and  C_26 
REMARK    3  A    between atoms: O_5  and  C_22 
REMARK    4  A    between atoms: O_8  and  N_12 
REMARK    5  A    between atoms: CA_16  and  N_11 
REMARK       I    between atoms: N_11  and  C_23 
REMARK    6  A    between atoms: N_14  and  C_29 
REMARK    7  A    between atoms: CA_18  and  C_22 
REMARK    8  A    between atoms: C_19  and  C_21 
REMARK    9  A    between atoms: C_23  and  C_24 
REMARK   10  A    between atoms: C_24  and  C_25 
ROOT
ATOM      1  S   UNL d   1      38.215 -10.840  -3.766  0.00  0.00    -0.136 SA
ATOM      2  O   UNL d   1      39.941  -8.662  -0.694  0.00  0.00    -0.271 OA
ATOM      3  N   UNL d   1      38.857  -8.471  -2.744  0.00  0.00    -0.293 N 
ATOM      4  C   UNL d   1      39.281  -9.368  -3.814  0.00  0.00     0.187 C 
ATOM      5  CA  UNL d   1      40.662  -9.443  -3.058  0.00  0.00     0.211 C 
ATOM      6  C   UNL d   1      39.840  -8.864  -1.872  0.00  0.00     0.251 C 
ATOM      7  CA  UNL d   1      37.557  -8.092  -2.515  0.00  0.00     0.117 C 
ATOM      8  C   UNL d   1      36.519  -8.715  -3.137  0.00  0.00    -0.013 C 
ATOM      9  C   UNL d   1      36.700  -9.884  -4.088  0.00  0.00     0.115 C 
ENDROOT
BRANCH   5  10
ATOM     10  N   UNL d   1      41.383 -10.765  -3.044  0.00  0.00    -0.339 N 
ATOM     11  C   UNL d   1      42.726 -10.731  -3.405  0.00  0.00     0.275 C 
ATOM     12  O   UNL d   1      43.386 -11.771  -3.432  0.00  0.00    -0.266 OA
ATOM     13  H   UNL d   1      41.005 -11.605  -2.619  0.00  0.00     0.163 HD
BRANCH  11  14
ATOM     14  C   UNL d   1      43.443  -9.424  -3.749  0.00  0.00     0.180 C 
ATOM     15  N   UNL d   1      43.603  -8.862  -4.913  0.00  0.00    -0.126 NA
BRANCH  15  16
ATOM     16  O   UNL d   1      43.047  -9.505  -6.015  0.00  0.00    -0.261 OA
ATOM     17  C   UNL d   1      41.967  -8.669  -6.465  0.00  0.00     0.240 C 
ENDBRANCH  15  16
BRANCH  14  18
ATOM     18  C   UNL d   1      44.161  -8.749  -2.662  0.00  0.00     0.102 A 
ATOM     19  N   UNL d   1      43.637  -7.633  -2.021  0.00  0.00    -0.222 NA
ATOM     20  C   UNL d   1      44.379  -7.310  -0.992  0.00  0.00     0.164 A 
ATOM     21  S   UNL d   1      45.805  -8.240  -0.784  0.00  0.00    -0.062 SA
ATOM     22  C   UNL d   1      45.368  -9.188  -2.139  0.00  0.00     0.087 A 
BRANCH  20  23
ATOM     23  N   UNL d   1      44.057  -6.326  -0.145  0.00  0.00    -0.378 N 
ATOM     24  H   UNL d   1      43.124  -6.276   0.240  0.00  0.00     0.158 HD
ATOM     25  H   UNL d   1      44.800  -5.957   0.438  0.00  0.00     0.158 HD
ENDBRANCH  20  23
ENDBRANCH  14  18
ENDBRANCH  11  14
ENDBRANCH   5  10
BRANCH   7  26
ATOM     26  C   UNL d   1      37.308  -6.864  -1.660  0.00  0.00     0.194 C 
ATOM     27  OXT UNL d   1      36.943  -6.910  -0.493  0.00  0.00    -0.645 OA
BRANCH  26  28
ATOM     28  O   UNL d   1      37.380  -5.684  -2.309  0.00  0.00    -0.772 OA
ATOM     29  H   UNL d   1      38.289  -5.368  -2.506  0.00  0.00     0.167 HD
ENDBRANCH  26  28
ENDBRANCH   7  26
BRANCH   8  30
ATOM     30  C   UNL d   1      35.054  -8.372  -2.908  0.00  0.00     0.216 C 
BRANCH  30  31
ATOM     31  O   UNL d   1      34.255  -8.900  -3.979  0.00  0.00    -0.317 OA
BRANCH  31  32
ATOM     32  C   UNL d   1      33.207  -8.136  -4.383  0.00  0.00     0.255 C 
ATOM     33  O   UNL d   1      32.909  -7.040  -3.929  0.00  0.00    -0.266 OA
ATOM     34  C   UNL d   1      32.462  -8.825  -5.485  0.00  0.00     0.126 C 
ENDBRANCH  31  32
ENDBRANCH  30  31
ENDBRANCH   8  30
TORSDOF 10
ENDMDL
MODEL 2
REMARK VINA RESULT:      -7.0      2.803      4.167
REMARK  10 active torsions:
REMARK  status: ('A' for Active; 'I' for Inactive)
REMARK    1  A    between atoms: O_4  and  C_21 
REMARK    2  A    between atoms: O_4  and  C_26 
REMARK    3  A    between atoms: O_5  and  C_22 
REMARK    4  A    between atoms: O_8  and  N_12 
REMARK    5  A    between atoms: CA_16  and  N_11 
REMARK       I    between atoms: N_11  and  C_23 
REMARK    6  A    between atoms: N_14  and  C_29 
REMARK    7  A    between atoms: CA_18  and  C_22 
REMARK    8  A    between atoms: C_19  and  C_21 
REMARK    9  A    between atoms: C_23  and  C_24 
REMARK   10  A    between atoms: C_24  and  C_25 
ROOT
ATOM      1  S   UNL d   1      39.306  -6.847  -0.408  0.00  0.00    -0.136 SA
ATOM      2  O   UNL d   1      41.296  -7.200  -4.024  0.00  0.00    -0.271 OA
ATOM      3  N   UNL d   1      40.117  -8.394  -2.412  0.00  0.00    -0.293 N 
ATOM      4  C   UNL d   1      40.440  -8.133  -1.013  0.00  0.00     0.187 C 
ATOM      5  CA  UNL d   1      41.853  -7.671  -1.536  0.00  0.00     0.211 C 
ATOM      6  C   UNL d   1      41.124  -7.606  -2.908  0.00  0.00     0.251 C 
ATOM      7  CA  UNL d   1      38.852  -8.633  -2.888  0.00  0.00     0.117 C 
ATOM      8  C   UNL d   1      37.753  -8.416  -2.114  0.00  0.00    -0.013 C 
ATOM      9  C   UNL d   1      37.825  -7.864  -0.702  0.00  0.00     0.115 C 
ENDROOT
BRANCH   5  10
ATOM     10  N   UNL d   1      42.507  -6.501  -0.850  0.00  0.00    -0.339 N 
ATOM     11  C   UNL d   1      43.831  -6.682  -0.465  0.00  0.00     0.275 C 
ATOM     12  O   UNL d   1      44.437  -5.779   0.114  0.00  0.00    -0.266 OA
ATOM     13  H   UNL d   1      42.108  -5.569  -0.830  0.00  0.00     0.163 HD
BRANCH  11  14
ATOM     14  C   UNL d   1      44.595  -7.974  -0.763  0.00  0.00     0.180 C 
ATOM     15  N   UNL d   1      44.880  -8.959   0.039  0.00  0.00    -0.126 NA
BRANCH  15  16
ATOM     16  O   UNL d   1      44.431  -8.861   1.354  0.00  0.00    -0.261 OA
ATOM     17  C   UNL d   1      45.595  -9.004   2.186  0.00  0.00     0.240 C 
ENDBRANCH  15  16
BRANCH  14  18
ATOM     18  C   UNL d   1      45.208  -8.097  -2.091  0.00  0.00     0.102 A 
ATOM     19  N   UNL d   1      46.194  -7.220  -2.526  0.00  0.00    -0.222 NA
ATOM     20  C   UNL d   1      46.691  -7.625  -3.667  0.00  0.00     0.164 A 
ATOM     21  S   UNL d   1      45.944  -9.008  -4.353  0.00  0.00    -0.062 SA
ATOM     22  C   UNL d   1      44.915  -9.112  -2.990  0.00  0.00     0.087 A 
BRANCH  20  23
ATOM     23  N   UNL d   1      47.718  -7.015  -4.270  0.00  0.00    -0.378 N 
ATOM     24  H   UNL d   1      48.603  -7.493  -4.368  0.00  0.00     0.158 HD
ATOM     25  H   UNL d   1      47.494  -6.340  -4.992  0.00  0.00     0.158 HD
ENDBRANCH  20  23
ENDBRANCH  14  18
ENDBRANCH  11  14
ENDBRANCH   5  10
BRANCH   7  26
ATOM     26  C   UNL d   1      38.709  -9.286  -4.250  0.00  0.00     0.194 C 
ATOM     27  OXT UNL d   1      39.061 -10.432  -4.495  0.00  0.00    -0.645 OA
BRANCH  26  28
ATOM     28  O   UNL d   1      38.287  -8.471  -5.239  0.00  0.00    -0.772 OA
ATOM     29  H   UNL d   1      37.679  -8.883  -5.891  0.00  0.00     0.167 HD
ENDBRANCH  26  28
ENDBRANCH   7  26
BRANCH   8  30
ATOM     30  C   UNL d   1      36.321  -8.628  -2.584  0.00  0.00     0.216 C 
BRANCH  30  31
ATOM     31  O   UNL d   1      35.936  -7.569  -3.476  0.00  0.00    -0.317 OA
BRANCH  31  32
ATOM     32  C   UNL d   1      34.706  -7.674  -4.041  0.00  0.00     0.255 C 
ATOM     33  O   UNL d   1      33.652  -7.793  -3.432  0.00  0.00    -0.266 OA
ATOM     34  C   UNL d   1      34.817  -7.609  -5.533  0.00  0.00     0.126 C 
ENDBRANCH  31  32
ENDBRANCH  30  31
ENDBRANCH   8  30
TORSDOF 10
ENDMDL
MODEL 3
REMARK VINA RESULT:      -6.8      2.924      7.837
REMARK  10 active torsions:
REMARK  status: ('A' for Active; 'I' for Inactive)
REMARK    1  A    between atoms: O_4  and  C_21 
REMARK    2  A    between atoms: O_4  and  C_26 
REMARK    3  A    between atoms: O_5  and  C_22 
REMARK    4  A    between atoms: O_8  and  N_12 
REMARK    5  A    between atoms: CA_16  and  N_11 
REMARK       I    between atoms: N_11  and  C_23 
REMARK    6  A    between atoms: N_14  and  C_29 
REMARK    7  A    between atoms: CA_18  and  C_22 
REMARK    8  A    between atoms: C_19  and  C_21 
REMARK    9  A    between atoms: C_23  and  C_24 
REMARK   10  A    between atoms: C_24  and  C_25 
ROOT
ATOM      1  S   UNL d   1      40.285  -7.525  -7.039  0.00  0.00    -0.136 SA
ATOM      2  O   UNL d   1      41.083  -7.407  -2.975  0.00  0.00    -0.271 OA
ATOM      3  N   UNL d   1      41.048  -8.804  -4.837  0.00  0.00    -0.293 N 
ATOM      4  C   UNL d   1      39.891  -8.715  -5.722  0.00  0.00     0.187 C 
ATOM      5  CA  UNL d   1      39.106  -8.177  -4.466  0.00  0.00     0.211 C 
ATOM      6  C   UNL d   1      40.534  -7.950  -3.895  0.00  0.00     0.251 C 
ATOM      7  CA  UNL d   1      42.340  -8.996  -5.260  0.00  0.00     0.117 C 
ATOM      8  C   UNL d   1      42.676  -8.888  -6.574  0.00  0.00    -0.013 C 
ATOM      9  C   UNL d   1      41.683  -8.513  -7.660  0.00  0.00     0.115 C 
ENDROOT
BRANCH   5  10
ATOM     10  N   UNL d   1      38.083  -7.094  -4.688  0.00  0.00    -0.339 N 
ATOM     11  C   UNL d   1      36.945  -7.157  -3.891  0.00  0.00     0.275 C 
ATOM     12  O   UNL d   1      36.053  -6.317  -4.019  0.00  0.00    -0.266 OA
ATOM     13  H   UNL d   1      38.265  -6.255  -5.228  0.00  0.00     0.163 HD
BRANCH  11  14
ATOM     14  C   UNL d   1      36.762  -8.233  -2.819  0.00  0.00     0.180 C 
ATOM     15  N   UNL d   1      36.056  -9.326  -2.870  0.00  0.00    -0.126 NA
BRANCH  15  16
ATOM     16  O   UNL d   1      35.371  -9.589  -4.053  0.00  0.00    -0.261 OA
ATOM     17  C   UNL d   1      33.994  -9.253  -3.802  0.00  0.00     0.240 C 
ENDBRANCH  15  16
BRANCH  14  18
ATOM     18  C   UNL d   1      37.350  -7.969  -1.501  0.00  0.00     0.102 A 
ATOM     19  N   UNL d   1      36.945  -6.893  -0.721  0.00  0.00    -0.222 NA
ATOM     20  C   UNL d   1      37.495  -6.959   0.465  0.00  0.00     0.164 A 
ATOM     21  S   UNL d   1      38.613  -8.238   0.694  0.00  0.00    -0.062 SA
ATOM     22  C   UNL d   1      38.294  -8.785  -0.895  0.00  0.00     0.087 A 
BRANCH  20  23
ATOM     23  N   UNL d   1      37.210  -6.095   1.447  0.00  0.00    -0.378 N 
ATOM     24  H   UNL d   1      37.247  -6.396   2.411  0.00  0.00     0.158 HD
ATOM     25  H   UNL d   1      37.418  -5.118   1.277  0.00  0.00     0.158 HD
ENDBRANCH  20  23
ENDBRANCH  14  18
ENDBRANCH  11  14
ENDBRANCH   5  10
BRANCH   7  26
ATOM     26  C   UNL d   1      43.363  -9.476  -4.248  0.00  0.00     0.194 C 
ATOM     27  OXT UNL d   1      43.554 -10.655  -3.981  0.00  0.00    -0.645 OA
BRANCH  26  28
ATOM     28  O   UNL d   1      43.974  -8.505  -3.539  0.00  0.00    -0.772 OA
ATOM     29  H   UNL d   1      43.794  -8.514  -2.573  0.00  0.00     0.167 HD
ENDBRANCH  26  28
ENDBRANCH   7  26
BRANCH   8  30
ATOM     30  C   UNL d   1      44.090  -9.054  -7.112  0.00  0.00     0.216 C 
BRANCH  30  31
ATOM     31  O   UNL d   1      44.822  -7.827  -6.956  0.00  0.00    -0.317 OA
BRANCH  31  32
ATOM     32  C   UNL d   1      46.061  -7.930  -6.411  0.00  0.00     0.255 C 
ATOM     33  O   UNL d   1      46.347  -7.696  -5.245  0.00  0.00    -0.266 OA
ATOM     34  C   UNL d   1      47.042  -8.387  -7.446  0.00  0.00     0.126 C 
ENDBRANCH  31  32
ENDBRANCH  30  31
ENDBRANCH   8  30
TORSDOF 10
ENDMDL
MODEL 4
REMARK VINA RESULT:      -6.7      1.714      2.884
REMARK  10 active torsions:
REMARK  status: ('A' for Active; 'I' for Inactive)
REMARK    1  A    between atoms: O_4  and  C_21 
REMARK    2  A    between atoms: O_4  and  C_26 
REMARK    3  A    between atoms: O_5  and  C_22 
REMARK    4  A    between atoms: O_8  and  N_12 
REMARK    5  A    between atoms: CA_16  and  N_11 
REMARK       I    between atoms: N_11  and  C_23 
REMARK    6  A    between atoms: N_14  and  C_29 
REMARK    7  A    between atoms: CA_18  and  C_22 
REMARK    8  A    between atoms: C_19  and  C_21 
REMARK    9  A    between atoms: C_23  and  C_24 
REMARK   10  A    between atoms: C_24  and  C_25 
ROOT
ATOM      1  S   UNL d   1      38.404 -10.907  -3.808  0.00  0.00    -0.136 SA
ATOM      2  O   UNL d   1      39.912  -8.660  -0.670  0.00  0.00    -0.271 OA
ATOM      3  N   UNL d   1      38.951  -8.515  -2.785  0.00  0.00    -0.293 N 
ATOM      4  C   UNL d   1      39.451  -9.421  -3.814  0.00  0.00     0.187 C 
ATOM      5  CA  UNL d   1      40.784  -9.466  -2.975  0.00  0.00     0.211 C 
ATOM      6  C   UNL d   1      39.885  -8.881  -1.850  0.00  0.00     0.251 C 
ATOM      7  CA  UNL d   1      37.635  -8.151  -2.641  0.00  0.00     0.117 C 
ATOM      8  C   UNL d   1      36.645  -8.796  -3.315  0.00  0.00    -0.013 C 
ATOM      9  C   UNL d   1      36.898  -9.977  -4.236  0.00  0.00     0.115 C 
ENDROOT
BRANCH   5  10
ATOM     10  N   UNL d   1      41.521 -10.778  -2.897  0.00  0.00    -0.339 N 
ATOM     11  C   UNL d   1      42.863 -10.746  -3.259  0.00  0.00     0.275 C 
ATOM     12  O   UNL d   1      43.535 -11.778  -3.236  0.00  0.00    -0.266 OA
ATOM     13  H   UNL d   1      41.152 -11.600  -2.432  0.00  0.00     0.163 HD
BRANCH  11  14
ATOM     14  C   UNL d   1      43.565  -9.449  -3.666  0.00  0.00     0.180 C 
ATOM     15  N   UNL d   1      43.932  -8.448  -2.918  0.00  0.00    -0.126 NA
BRANCH  15  16
ATOM     16  O   UNL d   1      43.675  -8.544  -1.553  0.00  0.00    -0.261 OA
ATOM     17  C   UNL d   1      43.212  -7.246  -1.141  0.00  0.00     0.240 C 
ENDBRANCH  15  16
BRANCH  14  18
ATOM     18  C   UNL d   1      43.760  -9.217  -5.102  0.00  0.00     0.102 A 
ATOM     19  N   UNL d   1      42.728  -8.765  -5.916  0.00  0.00    -0.222 NA
ATOM     20  C   UNL d   1      43.182  -8.486  -7.112  0.00  0.00     0.164 A 
ATOM     21  S   UNL d   1      44.836  -8.846  -7.380  0.00  0.00    -0.062 SA
ATOM     22  C   UNL d   1      44.975  -9.360  -5.754  0.00  0.00     0.087 A 
BRANCH  20  23
ATOM     23  N   UNL d   1      42.419  -7.948  -8.071  0.00  0.00    -0.378 N 
ATOM     24  H   UNL d   1      42.841  -7.385  -8.796  0.00  0.00     0.158 HD
ATOM     25  H   UNL d   1      41.581  -8.455  -8.332  0.00  0.00     0.158 HD
ENDBRANCH  20  23
ENDBRANCH  14  18
ENDBRANCH  11  14
ENDBRANCH   5  10
BRANCH   7  26
ATOM     26  C   UNL d   1      37.319  -6.913  -1.821  0.00  0.00     0.194 C 
ATOM     27  OXT UNL d   1      36.887  -6.948  -0.677  0.00  0.00    -0.645 OA
BRANCH  26  28
ATOM     28  O   UNL d   1      37.411  -5.743  -2.485  0.00  0.00    -0.772 OA
ATOM     29  H   UNL d   1      37.778  -5.803  -3.394  0.00  0.00     0.167 HD
ENDBRANCH  26  28
ENDBRANCH   7  26
BRANCH   8  30
ATOM     30  C   UNL d   1      35.165  -8.471  -3.181  0.00  0.00     0.216 C 
BRANCH  30  31
ATOM     31  O   UNL d   1      34.638  -8.051  -4.450  0.00  0.00    -0.317 OA
BRANCH  31  32
ATOM     32  C   UNL d   1      33.328  -7.694  -4.471  0.00  0.00     0.255 C 
ATOM     33  O   UNL d   1      32.849  -6.714  -3.919  0.00  0.00    -0.266 OA
ATOM     34  C   UNL d   1      32.541  -8.674  -5.287  0.00  0.00     0.126 C 
ENDBRANCH  31  32
ENDBRANCH  30  31
ENDBRANCH   8  30
TORSDOF 10
ENDMDL
MODEL 5
REMARK VINA RESULT:      -6.6      3.267      7.989
REMARK  10 active torsions:
REMARK  status: ('A' for Active; 'I' for Inactive)
REMARK    1  A    between atoms: O_4  and  C_21 
REMARK    2  A    between atoms: O_4  and  C_26 
REMARK    3  A    between atoms: O_5  and  C_22 
REMARK    4  A    between atoms: O_8  and  N_12 
REMARK    5  A    between atoms: CA_16  and  N_11 
REMARK       I    between atoms: N_11  and  C_23 
REMARK    6  A    between atoms: N_14  and  C_29 
REMARK    7  A    between atoms: CA_18  and  C_22 
REMARK    8  A    between atoms: C_19  and  C_21 
REMARK    9  A    between atoms: C_23  and  C_24 
REMARK   10  A    between atoms: C_24  and  C_25 
ROOT
ATOM      1  S   UNL d   1      40.608  -7.077  -0.840  0.00  0.00    -0.136 SA
ATOM      2  O   UNL d   1      41.480 -10.626  -2.791  0.00  0.00    -0.271 OA
ATOM      3  N   UNL d   1      41.982  -8.355  -2.724  0.00  0.00    -0.293 N 
ATOM      4  C   UNL d   1      40.865  -7.423  -2.607  0.00  0.00     0.187 C 
ATOM      5  CA  UNL d   1      39.990  -8.558  -3.261  0.00  0.00     0.211 C 
ATOM      6  C   UNL d   1      41.189  -9.464  -2.864  0.00  0.00     0.251 C 
ATOM      7  CA  UNL d   1      43.197  -8.196  -2.103  0.00  0.00     0.117 C 
ATOM      8  C   UNL d   1      43.378  -7.260  -1.132  0.00  0.00    -0.013 C 
ATOM      9  C   UNL d   1      42.266  -6.355  -0.631  0.00  0.00     0.115 C 
ENDROOT
BRANCH   5  10
ATOM     10  N   UNL d   1      38.577  -8.729  -2.766  0.00  0.00    -0.339 N 
ATOM     11  C   UNL d   1      37.648  -9.154  -3.709  0.00  0.00     0.275 C 
ATOM     12  O   UNL d   1      36.467  -9.306  -3.391  0.00  0.00    -0.266 OA
ATOM     13  H   UNL d   1      38.325  -8.734  -1.784  0.00  0.00     0.163 HD
BRANCH  11  14
ATOM     14  C   UNL d   1      38.042  -9.477  -5.152  0.00  0.00     0.180 C 
ATOM     15  N   UNL d   1      38.607 -10.550  -5.625  0.00  0.00    -0.126 NA
BRANCH  15  16
ATOM     16  O   UNL d   1      38.895 -11.570  -4.722  0.00  0.00    -0.261 OA
ATOM     17  C   UNL d   1      39.949 -12.347  -5.317  0.00  0.00     0.240 C 
ENDBRANCH  15  16
BRANCH  14  18
ATOM     18  C   UNL d   1      37.885  -8.406  -6.143  0.00  0.00     0.102 A 
ATOM     19  N   UNL d   1      36.928  -7.409  -5.997  0.00  0.00    -0.222 NA
ATOM     20  C   UNL d   1      37.086  -6.489  -6.915  0.00  0.00     0.164 A 
ATOM     21  S   UNL d   1      38.307  -6.803  -8.077  0.00  0.00    -0.062 SA
ATOM     22  C   UNL d   1      38.698  -8.252  -7.256  0.00  0.00     0.087 A 
BRANCH  20  23
ATOM     23  N   UNL d   1      36.355  -5.369  -6.954  0.00  0.00    -0.378 N 
ATOM     24  H   UNL d   1      36.416  -4.754  -7.754  0.00  0.00     0.158 HD
ATOM     25  H   UNL d   1      35.466  -5.381  -6.468  0.00  0.00     0.158 HD
ENDBRANCH  20  23
ENDBRANCH  14  18
ENDBRANCH  11  14
ENDBRANCH   5  10
BRANCH   7  26
ATOM     26  C   UNL d   1      44.379  -8.992  -2.625  0.00  0.00     0.194 C 
ATOM     27  OXT UNL d   1      45.118  -8.603  -3.519  0.00  0.00    -0.645 OA
BRANCH  26  28
ATOM     28  O   UNL d   1      44.495 -10.242  -2.134  0.00  0.00    -0.772 OA
ATOM     29  H   UNL d   1      43.799 -10.508  -1.493  0.00  0.00     0.167 HD
ENDBRANCH  26  28
ENDBRANCH   7  26
BRANCH   8  30
ATOM     30  C   UNL d   1      44.683  -7.049  -0.379  0.00  0.00     0.216 C 
BRANCH  30  31
ATOM     31  O   UNL d   1      44.536  -7.477   0.985  0.00  0.00    -0.317 OA
BRANCH  31  32
ATOM     32  C   UNL d   1      45.144  -8.644   1.319  0.00  0.00     0.255 C 
ATOM     33  O   UNL d   1      44.767  -9.419   2.186  0.00  0.00    -0.266 OA
ATOM     34  C   UNL d   1      46.350  -8.861   0.458  0.00  0.00     0.126 C 
ENDBRANCH  31  32
ENDBRANCH  30  31
ENDBRANCH   8  30
TORSDOF 10
ENDMDL
MODEL 6
REMARK VINA RESULT:      -6.4      3.351      4.892
REMARK  10 active torsions:
REMARK  status: ('A' for Active; 'I' for Inactive)
REMARK    1  A    between atoms: O_4  and  C_21 
REMARK    2  A    between atoms: O_4  and  C_26 
REMARK    3  A    between atoms: O_5  and  C_22 
REMARK    4  A    between atoms: O_8  and  N_12 
REMARK    5  A    between atoms: CA_16  and  N_11 
REMARK       I    between atoms: N_11  and  C_23 
REMARK    6  A    between atoms: N_14  and  C_29 
REMARK    7  A    between atoms: CA_18  and  C_22 
REMARK    8  A    between atoms: C_19  and  C_21 
REMARK    9  A    between atoms: C_23  and  C_24 
REMARK   10  A    between atoms: C_24  and  C_25 
ROOT
ATOM      1  S   UNL d   1      39.157  -9.012  -4.226  0.00  0.00    -0.136 SA
ATOM      2  O   UNL d   1      42.791  -9.517  -2.302  0.00  0.00    -0.271 OA
ATOM      3  N   UNL d   1      41.321  -7.917  -3.136  0.00  0.00    -0.293 N 
ATOM      4  C   UNL d   1      40.745  -8.157  -4.455  0.00  0.00     0.187 C 
ATOM      5  CA  UNL d   1      42.017  -9.045  -4.731  0.00  0.00     0.211 C 
ATOM      6  C   UNL d   1      42.164  -8.997  -3.184  0.00  0.00     0.251 C 
ATOM      7  CA  UNL d   1      40.643  -7.357  -2.081  0.00  0.00     0.117 C 
ATOM      8  C   UNL d   1      39.293  -7.189  -2.116  0.00  0.00    -0.013 C 
ATOM      9  C   UNL d   1      38.430  -7.634  -3.284  0.00  0.00     0.115 C 
ENDROOT
BRANCH   5  10
ATOM     10  N   UNL d   1      41.833 -10.301  -5.542  0.00  0.00    -0.339 N 
ATOM     11  C   UNL d   1      41.963 -10.162  -6.920  0.00  0.00     0.275 C 
ATOM     12  O   UNL d   1      41.815 -11.137  -7.657  0.00  0.00    -0.266 OA
ATOM     13  H   UNL d   1      41.813 -11.231  -5.137  0.00  0.00     0.163 HD
BRANCH  11  14
ATOM     14  C   UNL d   1      42.319  -8.824  -7.572  0.00  0.00     0.180 C 
ATOM     15  N   UNL d   1      41.538  -7.980  -8.183  0.00  0.00    -0.126 NA
BRANCH  15  16
ATOM     16  O   UNL d   1      40.186  -8.301  -8.260  0.00  0.00    -0.261 OA
ATOM     17  C   UNL d   1      39.479  -7.215  -7.636  0.00  0.00     0.240 C 
ENDBRANCH  15  16
BRANCH  14  18
ATOM     18  C   UNL d   1      43.742  -8.472  -7.642  0.00  0.00     0.102 A 
ATOM     19  N   UNL d   1      44.162  -7.167  -7.867  0.00  0.00    -0.222 NA
ATOM     20  C   UNL d   1      45.461  -7.078  -7.730  0.00  0.00     0.164 A 
ATOM     21  S   UNL d   1      46.278  -8.556  -7.435  0.00  0.00    -0.062 SA
ATOM     22  C   UNL d   1      44.775  -9.372  -7.431  0.00  0.00     0.087 A 
BRANCH  20  23
ATOM     23  N   UNL d   1      46.121  -5.916  -7.805  0.00  0.00    -0.378 N 
ATOM     24  H   UNL d   1      46.101  -5.378  -8.660  0.00  0.00     0.158 HD
ATOM     25  H   UNL d   1      46.221  -5.387  -6.946  0.00  0.00     0.158 HD
ENDBRANCH  20  23
ENDBRANCH  14  18
ENDBRANCH  11  14
ENDBRANCH   5  10
BRANCH   7  26
ATOM     26  C   UNL d   1      41.452  -6.793  -0.928  0.00  0.00     0.194 C 
ATOM     27  OXT UNL d   1      41.851  -5.637  -0.878  0.00  0.00    -0.645 OA
BRANCH  26  28
ATOM     28  O   UNL d   1      41.836  -7.691   0.002  0.00  0.00    -0.772 OA
ATOM     29  H   UNL d   1      42.267  -7.312   0.799  0.00  0.00     0.167 HD
ENDBRANCH  26  28
ENDBRANCH   7  26
BRANCH   8  30
ATOM     30  C   UNL d   1      38.473  -6.607  -0.975  0.00  0.00     0.216 C 
BRANCH  30  31
ATOM     31  O   UNL d   1      38.062  -7.656  -0.082  0.00  0.00    -0.317 OA
BRANCH  31  32
ATOM     32  C   UNL d   1      37.656  -7.270   1.155  0.00  0.00     0.255 C 
ATOM     33  O   UNL d   1      37.050  -6.241   1.416  0.00  0.00    -0.266 OA
ATOM     34  C   UNL d   1      38.049  -8.300   2.169  0.00  0.00     0.126 C 
ENDBRANCH  31  32
ENDBRANCH  30  31
ENDBRANCH   8  30
TORSDOF 10
ENDMDL
MODEL 7
REMARK VINA RESULT:      -6.2      3.201      8.251
REMARK  10 active torsions:
REMARK  status: ('A' for Active; 'I' for Inactive)
REMARK    1  A    between atoms: O_4  and  C_21 
REMARK    2  A    between atoms: O_4  and  C_26 
REMARK    3  A    between atoms: O_5  and  C_22 
REMARK    4  A    between atoms: O_8  and  N_12 
REMARK    5  A    between atoms: CA_16  and  N_11 
REMARK       I    between atoms: N_11  and  C_23 
REMARK    6  A    between atoms: N_14  and  C_29 
REMARK    7  A    between atoms: CA_18  and  C_22 
REMARK    8  A    between atoms: C_19  and  C_21 
REMARK    9  A    between atoms: C_23  and  C_24 
REMARK   10  A    between atoms: C_24  and  C_25 
ROOT
ATOM      1  S   UNL d   1      44.666  -9.225  -4.407  0.00  0.00    -0.136 SA
ATOM      2  O   UNL d   1      41.977  -6.782  -2.416  0.00  0.00    -0.271 OA
ATOM      3  N   UNL d   1      43.432  -8.578  -2.142  0.00  0.00    -0.293 N 
ATOM      4  C   UNL d   1      43.405  -9.625  -3.159  0.00  0.00     0.187 C 
ATOM      5  CA  UNL d   1      41.926  -9.162  -3.444  0.00  0.00     0.211 C 
ATOM      6  C   UNL d   1      42.364  -7.892  -2.660  0.00  0.00     0.251 C 
ATOM      7  CA  UNL d   1      44.570  -8.125  -1.521  0.00  0.00     0.117 C 
ATOM      8  C   UNL d   1      45.807  -8.463  -1.976  0.00  0.00    -0.013 C 
ATOM      9  C   UNL d   1      46.034  -9.319  -3.209  0.00  0.00     0.115 C 
ENDROOT
BRANCH   5  10
ATOM     10  N   UNL d   1      41.450  -9.173  -4.873  0.00  0.00    -0.339 N 
ATOM     11  C   UNL d   1      40.213  -9.767  -5.098  0.00  0.00     0.275 C 
ATOM     12  O   UNL d   1      39.756  -9.830  -6.241  0.00  0.00    -0.266 OA
ATOM     13  H   UNL d   1      41.879  -8.624  -5.610  0.00  0.00     0.163 HD
BRANCH  11  14
ATOM     14  C   UNL d   1      39.362 -10.333  -3.960  0.00  0.00     0.180 C 
ATOM     15  N   UNL d   1      39.348 -11.540  -3.472  0.00  0.00    -0.126 NA
BRANCH  15  16
ATOM     16  O   UNL d   1      40.224 -12.466  -4.033  0.00  0.00    -0.261 OA
ATOM     17  C   UNL d   1      41.177 -12.789  -3.006  0.00  0.00     0.240 C 
ENDBRANCH  15  16
BRANCH  14  18
ATOM     18  C   UNL d   1      38.328  -9.456  -3.399  0.00  0.00     0.102 A 
ATOM     19  N   UNL d   1      38.484  -8.075  -3.356  0.00  0.00    -0.222 NA
ATOM     20  C   UNL d   1      37.374  -7.505  -2.962  0.00  0.00     0.164 A 
ATOM     21  S   UNL d   1      36.110  -8.572  -2.511  0.00  0.00    -0.062 SA
ATOM     22  C   UNL d   1      37.101  -9.902  -2.931  0.00  0.00     0.087 A 
BRANCH  20  23
ATOM     23  N   UNL d   1      37.216  -6.177  -2.915  0.00  0.00    -0.378 N 
ATOM     24  H   UNL d   1      36.305  -5.782  -2.729  0.00  0.00     0.158 HD
ATOM     25  H   UNL d   1      38.011  -5.629  -2.606  0.00  0.00     0.158 HD
ENDBRANCH  20  23
ENDBRANCH  14  18
ENDBRANCH  11  14
ENDBRANCH   5  10
BRANCH   7  26
ATOM     26  C   UNL d   1      44.419  -7.354  -0.222  0.00  0.00     0.194 C 
ATOM     27  OXT UNL d   1      44.323  -7.884   0.876  0.00  0.00    -0.645 OA
BRANCH  26  28
ATOM     28  O   UNL d   1      44.256  -6.022  -0.358  0.00  0.00    -0.772 OA
ATOM     29  H   UNL d   1      43.422  -5.744  -0.796  0.00  0.00     0.167 HD
ENDBRANCH  26  28
ENDBRANCH   7  26
BRANCH   8  30
ATOM     30  C   UNL d   1      47.109  -7.974  -1.359  0.00  0.00     0.216 C 
BRANCH  30  31
ATOM     31  O   UNL d   1      47.955  -9.093  -1.049  0.00  0.00    -0.317 OA
BRANCH  31  32
ATOM     32  C   UNL d   1      47.617  -9.820   0.047  0.00  0.00     0.255 C 
ATOM     33  O   UNL d   1      47.269  -9.360   1.126  0.00  0.00    -0.266 OA
ATOM     34  C   UNL d   1      47.716 -11.283  -0.255  0.00  0.00     0.126 C 
ENDBRANCH  31  32
ENDBRANCH  30  31
ENDBRANCH   8  30
TORSDOF 10
ENDMDL
MODEL 8
REMARK VINA RESULT:      -6.2      1.946      2.590
REMARK  10 active torsions:
REMARK  status: ('A' for Active; 'I' for Inactive)
REMARK    1  A    between atoms: O_4  and  C_21 
REMARK    2  A    between atoms: O_4  and  C_26 
REMARK    3  A    between atoms: O_5  and  C_22 
REMARK    4  A    between atoms: O_8  and  N_12 
REMARK    5  A    between atoms: CA_16  and  N_11 
REMARK       I    between atoms: N_11  and  C_23 
REMARK    6  A    between atoms: N_14  and  C_29 
REMARK    7  A    between atoms: CA_18  and  C_22 
REMARK    8  A    between atoms: C_19  and  C_21 
REMARK    9  A    between atoms: C_23  and  C_24 
REMARK   10  A    between atoms: C_24  and  C_25 
ROOT
ATOM      1  S   UNL d   1      38.793  -8.266  -6.606  0.00  0.00    -0.136 SA
ATOM      2  O   UNL d   1      38.409 -10.746  -3.310  0.00  0.00    -0.271 OA
ATOM      3  N   UNL d   1      38.502  -8.518  -3.975  0.00  0.00    -0.293 N 
ATOM      4  C   UNL d   1      39.527  -8.149  -4.946  0.00  0.00     0.187 C 
ATOM      5  CA  UNL d   1      40.328  -9.397  -4.415  0.00  0.00     0.211 C 
ATOM      6  C   UNL d   1      38.949  -9.805  -3.824  0.00  0.00     0.251 C 
ATOM      7  CA  UNL d   1      37.229  -8.005  -3.954  0.00  0.00     0.117 C 
ATOM      8  C   UNL d   1      36.745  -7.270  -4.992  0.00  0.00    -0.013 C 
ATOM      9  C   UNL d   1      37.538  -6.993  -6.257  0.00  0.00     0.115 C 
ENDROOT
BRANCH   5  10
ATOM     10  N   UNL d   1      41.112 -10.206  -5.415  0.00  0.00    -0.339 N 
ATOM     11  C   UNL d   1      42.239 -10.856  -4.923  0.00  0.00     0.275 C 
ATOM     12  O   UNL d   1      42.944 -11.528  -5.678  0.00  0.00    -0.266 OA
ATOM     13  H   UNL d   1      40.766 -10.443  -6.338  0.00  0.00     0.163 HD
BRANCH  11  14
ATOM     14  C   UNL d   1      42.635 -10.795  -3.447  0.00  0.00     0.180 C 
ATOM     15  N   UNL d   1      42.224 -11.537  -2.459  0.00  0.00    -0.126 NA
BRANCH  15  16
ATOM     16  O   UNL d   1      41.307 -12.542  -2.754  0.00  0.00    -0.261 OA
ATOM     17  C   UNL d   1      42.019 -13.785  -2.625  0.00  0.00     0.240 C 
ENDBRANCH  15  16
BRANCH  14  18
ATOM     18  C   UNL d   1      43.502  -9.685  -3.033  0.00  0.00     0.102 A 
ATOM     19  N   UNL d   1      43.053  -8.687  -2.176  0.00  0.00    -0.222 NA
ATOM     20  C   UNL d   1      44.045  -7.905  -1.832  0.00  0.00     0.164 A 
ATOM     21  S   UNL d   1      45.548  -8.236  -2.588  0.00  0.00    -0.062 SA
ATOM     22  C   UNL d   1      44.835  -9.565  -3.394  0.00  0.00     0.087 A 
BRANCH  20  23
ATOM     23  N   UNL d   1      43.912  -6.912  -0.944  0.00  0.00    -0.378 N 
ATOM     24  H   UNL d   1      43.322  -7.035  -0.133  0.00  0.00     0.158 HD
ATOM     25  H   UNL d   1      44.703  -6.288  -0.829  0.00  0.00     0.158 HD
ENDBRANCH  20  23
ENDBRANCH  14  18
ENDBRANCH  11  14
ENDBRANCH   5  10
BRANCH   7  26
ATOM     26  C   UNL d   1      36.417  -8.151  -2.679  0.00  0.00     0.194 C 
ATOM     27  OXT UNL d   1      36.479  -7.368  -1.741  0.00  0.00    -0.645 OA
BRANCH  26  28
ATOM     28  O   UNL d   1      35.707  -9.292  -2.575  0.00  0.00    -0.772 OA
ATOM     29  H   UNL d   1      34.888  -9.229  -2.036  0.00  0.00     0.167 HD
ENDBRANCH  26  28
ENDBRANCH   7  26
BRANCH   8  30
ATOM     30  C   UNL d   1      35.336  -6.698  -5.053  0.00  0.00     0.216 C 
BRANCH  30  31
ATOM     31  O   UNL d   1      34.428  -7.684  -5.571  0.00  0.00    -0.317 OA
BRANCH  31  32
ATOM     32  C   UNL d   1      33.326  -7.942  -4.821  0.00  0.00     0.255 C 
ATOM     33  O   UNL d   1      33.095  -7.478  -3.714  0.00  0.00    -0.266 OA
ATOM     34  C   UNL d   1      32.413  -8.877  -5.554  0.00  0.00     0.126 C 
ENDBRANCH  31  32
ENDBRANCH  30  31
ENDBRANCH   8  30
TORSDOF 10
ENDMDL
MODEL 9
REMARK VINA RESULT:      -6.2      2.991      7.825
REMARK  10 active torsions:
REMARK  status: ('A' for Active; 'I' for Inactive)
REMARK    1  A    between atoms: O_4  and  C_21 
REMARK    2  A    between atoms: O_4  and  C_26 
REMARK    3  A    between atoms: O_5  and  C_22 
REMARK    4  A    between atoms: O_8  and  N_12 
REMARK    5  A    between atoms: CA_16  and  N_11 
REMARK       I    between atoms: N_11  and  C_23 
REMARK    6  A    between atoms: N_14  and  C_29 
REMARK    7  A    between atoms: CA_18  and  C_22 
REMARK    8  A    between atoms: C_19  and  C_21 
REMARK    9  A    between atoms: C_23  and  C_24 
REMARK   10  A    between atoms: C_24  and  C_25 
ROOT
ATOM      1  S   UNL d   1      41.057 -10.391  -3.329  0.00  0.00    -0.136 SA
ATOM      2  O   UNL d   1      39.453  -9.532  -7.051  0.00  0.00    -0.271 OA
ATOM      3  N   UNL d   1      40.877  -8.728  -5.396  0.00  0.00    -0.293 N 
ATOM      4  C   UNL d   1      40.424  -8.829  -4.012  0.00  0.00     0.187 C 
ATOM      5  CA  UNL d   1      38.963  -8.832  -4.604  0.00  0.00     0.211 C 
ATOM      6  C   UNL d   1      39.695  -9.168  -5.933  0.00  0.00     0.251 C 
ATOM      7  CA  UNL d   1      42.173  -8.919  -5.807  0.00  0.00     0.117 C 
ATOM      8  C   UNL d   1      43.108  -9.451  -4.973  0.00  0.00    -0.013 C 
ATOM      9  C   UNL d   1      42.798  -9.909  -3.559  0.00  0.00     0.115 C 
ENDROOT
BRANCH   5  10
ATOM     10  N   UNL d   1      37.938  -9.711  -3.937  0.00  0.00    -0.339 N 
ATOM     11  C   UNL d   1      36.985  -9.057  -3.163  0.00  0.00     0.275 C 
ATOM     12  O   UNL d   1      36.118  -9.703  -2.572  0.00  0.00    -0.266 OA
ATOM     13  H   UNL d   1      37.801 -10.688  -4.170  0.00  0.00     0.163 HD
BRANCH  11  14
ATOM     14  C   UNL d   1      36.948  -7.533  -3.033  0.00  0.00     0.180 C 
ATOM     15  N   UNL d   1      36.563  -6.647  -3.907  0.00  0.00    -0.126 NA
BRANCH  15  16
ATOM     16  O   UNL d   1      36.104  -7.119  -5.134  0.00  0.00    -0.261 OA
ATOM     17  C   UNL d   1      34.674  -6.967  -5.112  0.00  0.00     0.240 C 
ENDBRANCH  15  16
BRANCH  14  18
ATOM     18  C   UNL d   1      37.531  -6.952  -1.818  0.00  0.00     0.102 A 
ATOM     19  N   UNL d   1      36.791  -6.799  -0.652  0.00  0.00    -0.222 NA
ATOM     20  C   UNL d   1      37.564  -6.410   0.329  0.00  0.00     0.164 A 
ATOM     21  S   UNL d   1      39.195  -6.093  -0.092  0.00  0.00    -0.062 SA
ATOM     22  C   UNL d   1      38.859  -6.570  -1.700  0.00  0.00     0.087 A 
BRANCH  20  23
ATOM     23  N   UNL d   1      37.127  -6.270   1.587  0.00  0.00    -0.378 N 
ATOM     24  H   UNL d   1      37.547  -5.581   2.194  0.00  0.00     0.158 HD
ATOM     25  H   UNL d   1      36.151  -6.483   1.762  0.00  0.00     0.158 HD
ENDBRANCH  20  23
ENDBRANCH  14  18
ENDBRANCH  11  14
ENDBRANCH   5  10
BRANCH   7  26
ATOM     26  C   UNL d   1      42.580  -8.388  -7.169  0.00  0.00     0.194 C 
ATOM     27  OXT UNL d   1      43.029  -7.265  -7.354  0.00  0.00    -0.645 OA
BRANCH  26  28
ATOM     28  O   UNL d   1      42.287  -9.190  -8.212  0.00  0.00    -0.772 OA
ATOM     29  H   UNL d   1      41.723  -9.967  -7.999  0.00  0.00     0.167 HD
ENDBRANCH  26  28
ENDBRANCH   7  26
BRANCH   8  30
ATOM     30  C   UNL d   1      44.552  -9.722  -5.368  0.00  0.00     0.216 C 
BRANCH  30  31
ATOM     31  O   UNL d   1      45.385  -8.623  -4.963  0.00  0.00    -0.317 OA
BRANCH  31  32
ATOM     32  C   UNL d   1      46.271  -8.166  -5.886  0.00  0.00     0.255 C 
ATOM     33  O   UNL d   1      46.242  -7.063  -6.414  0.00  0.00    -0.266 OA
ATOM     34  C   UNL d   1      47.310  -9.208  -6.162  0.00  0.00     0.126 C 
ENDBRANCH  31  32
ENDBRANCH  30  31
ENDBRANCH   8  30
TORSDOF 10
ENDMDL
