MODEL 1
REMARK VINA RESULT:      -7.6      0.000      0.000
REMARK  10 active torsions:
REMARK  status: ('A' for Active; 'I' for Inactive)
REMARK    1  A    between atoms: O_4  and  C_21 
REMARK    2  A    between atoms: O_4  and  C_26 
REMARK    3  A    between atoms: O_5  and  C_22 
REMARK    4  A    between atoms: O_8  and  N_12 
REMARK    5  A    between atoms: CA_16  and  N_11 
REMARK       I    between atoms: N_11  and  C_23 
REMARK    6  A    between atoms: N_14  and  C_29 
REMARK    7  A    between atoms: CA_18  and  C_22 
REMARK    8  A    between atoms: C_19  and  C_21 
REMARK    9  A    between atoms: C_23  and  C_24 
REMARK   10  A    between atoms: C_24  and  C_25 
ROOT
ATOM      1  S   UNL d   1      38.655  -9.605  -1.851  0.00  0.00    -0.136 SA
ATOM      2  O   UNL d   1      41.847  -7.168  -2.913  0.00  0.00    -0.271 OA
ATOM      3  N   UNL d   1      39.683  -7.146  -2.054  0.00  0.00    -0.293 N 
ATOM      4  C   UNL d   1      38.687  -7.997  -2.705  0.00  0.00     0.187 C 
ATOM      5  CA  UNL d   1      39.585  -7.902  -3.984  0.00  0.00     0.211 C 
ATOM      6  C   UNL d   1      40.657  -7.384  -2.975  0.00  0.00     0.251 C 
ATOM      7  CA  UNL d   1      39.750  -6.958  -0.694  0.00  0.00     0.117 C 
ATOM      8  C   UNL d   1      39.019  -7.720   0.161  0.00  0.00    -0.013 C 
ATOM      9  C   UNL d   1      38.137  -8.873  -0.278  0.00  0.00     0.115 C 
ENDROOT
BRANCH   5  10
ATOM     10  N   UNL d   1      39.754  -9.156  -4.769  0.00  0.00    -0.339 N 
ATOM     11  C   UNL d   1      39.005  -9.311  -5.935  0.00  0.00     0.275 C 
ATOM     12  O   UNL d   1      39.088 -10.329  -6.622  0.00  0.00    -0.266 OA
ATOM     13  H   UNL d   1      40.577  -9.751  -4.660  0.00  0.00     0.163 HD
BRANCH  11  14
ATOM     14  C   UNL d   1      38.023  -8.185  -6.295  0.00  0.00     0.180 C 
ATOM     15  N   UNL d   1      38.285  -7.194  -7.102  0.00  0.00    -0.126 NA
BRANCH  15  16
ATOM     16  O   UNL d   1      39.568  -7.217  -7.651  0.00  0.00    -0.261 OA
ATOM     17  C   UNL d   1      39.429  -7.463  -9.050  0.00  0.00     0.240 C 
ENDBRANCH  15  16
BRANCH  14  18
ATOM     18  C   UNL d   1      36.678  -8.153  -5.721  0.00  0.00     0.102 A 
ATOM     19  N   UNL d   1      36.222  -9.141  -4.851  0.00  0.00    -0.222 NA
ATOM     20  C   UNL d   1      35.021  -8.843  -4.422  0.00  0.00     0.164 A 
ATOM     21  S   UNL d   1      34.342  -7.398  -5.047  0.00  0.00    -0.062 SA
ATOM     22  C   UNL d   1      35.765  -7.135  -5.952  0.00  0.00     0.087 A 
BRANCH  20  23
ATOM     23  N   UNL d   1      34.346  -9.597  -3.546  0.00  0.00    -0.378 N 
ATOM     24  H   UNL d   1      33.765 -10.346  -3.900  0.00  0.00     0.158 HD
ATOM     25  H   UNL d   1      34.790  -9.787  -2.656  0.00  0.00     0.158 HD
ENDBRANCH  20  23
ENDBRANCH  14  18
ENDBRANCH  11  14
ENDBRANCH   5  10
BRANCH   7  26
ATOM     26  C   UNL d   1      40.549  -5.783  -0.177  0.00  0.00     0.194 C 
ATOM     27  OXT UNL d   1      40.035  -4.734   0.192  0.00  0.00    -0.645 OA
BRANCH  26  28
ATOM     28  O   UNL d   1      41.887  -5.912  -0.246  0.00  0.00    -0.772 OA
ATOM     29  H   UNL d   1      42.402  -5.412   0.424  0.00  0.00     0.167 HD
ENDBRANCH  26  28
ENDBRANCH   7  26
BRANCH   8  30
ATOM     30  C   UNL d   1      39.040  -7.562   1.671  0.00  0.00     0.216 C 
BRANCH  30  31
ATOM     31  O   UNL d   1      38.128  -8.489   2.274  0.00  0.00    -0.317 OA
BRANCH  31  32
ATOM     32  C   UNL d   1      37.100  -7.949   2.980  0.00  0.00     0.255 C 
ATOM     33  O   UNL d   1      36.607  -6.847   2.788  0.00  0.00    -0.266 OA
ATOM     34  C   UNL d   1      36.646  -8.910   4.034  0.00  0.00     0.126 C 
ENDBRANCH  31  32
ENDBRANCH  30  31
ENDBRANCH   8  30
TORSDOF 10
ENDMDL
MODEL 2
REMARK VINA RESULT:      -7.2      2.039      2.902
REMARK  10 active torsions:
REMARK  status: ('A' for Active; 'I' for Inactive)
REMARK    1  A    between atoms: O_4  and  C_21 
REMARK    2  A    between atoms: O_4  and  C_26 
REMARK    3  A    between atoms: O_5  and  C_22 
REMARK    4  A    between atoms: O_8  and  N_12 
REMARK    5  A    between atoms: CA_16  and  N_11 
REMARK       I    between atoms: N_11  and  C_23 
REMARK    6  A    between atoms: N_14  and  C_29 
REMARK    7  A    between atoms: CA_18  and  C_22 
REMARK    8  A    between atoms: C_19  and  C_21 
REMARK    9  A    between atoms: C_23  and  C_24 
REMARK   10  A    between atoms: C_24  and  C_25 
ROOT
ATOM      1  S   UNL d   1      37.560  -8.812  -2.497  0.00  0.00    -0.136 SA
ATOM      2  O   UNL d   1      41.643  -8.105  -2.796  0.00  0.00    -0.271 OA
ATOM      3  N   UNL d   1      39.586  -7.069  -2.451  0.00  0.00    -0.293 N 
ATOM      4  C   UNL d   1      38.475  -7.466  -3.315  0.00  0.00     0.187 C 
ATOM      5  CA  UNL d   1      39.563  -7.891  -4.356  0.00  0.00     0.211 C 
ATOM      6  C   UNL d   1      40.521  -7.792  -3.129  0.00  0.00     0.251 C 
ATOM      7  CA  UNL d   1      39.449  -6.798  -1.111  0.00  0.00     0.117 C 
ATOM      8  C   UNL d   1      38.298  -7.084  -0.447  0.00  0.00    -0.013 C 
ATOM      9  C   UNL d   1      37.109  -7.780  -1.080  0.00  0.00     0.115 C 
ENDROOT
BRANCH   5  10
ATOM     10  N   UNL d   1      39.318  -9.165  -5.088  0.00  0.00    -0.339 N 
ATOM     11  C   UNL d   1      39.470  -9.170  -6.473  0.00  0.00     0.275 C 
ATOM     12  O   UNL d   1      39.270 -10.185  -7.139  0.00  0.00    -0.266 OA
ATOM     13  H   UNL d   1      39.334 -10.069  -4.612  0.00  0.00     0.163 HD
BRANCH  11  14
ATOM     14  C   UNL d   1      39.839  -7.838  -7.145  0.00  0.00     0.180 C 
ATOM     15  N   UNL d   1      41.041  -7.332  -7.195  0.00  0.00    -0.126 NA
BRANCH  15  16
ATOM     16  O   UNL d   1      42.022  -8.110  -6.579  0.00  0.00    -0.261 OA
ATOM     17  C   UNL d   1      43.116  -8.216  -7.489  0.00  0.00     0.240 C 
ENDBRANCH  15  16
BRANCH  14  18
ATOM     18  C   UNL d   1      38.815  -7.017  -7.792  0.00  0.00     0.102 A 
ATOM     19  N   UNL d   1      38.916  -6.622  -9.123  0.00  0.00    -0.222 NA
ATOM     20  C   UNL d   1      37.842  -5.963  -9.479  0.00  0.00     0.164 A 
ATOM     21  S   UNL d   1      36.662  -5.739  -8.256  0.00  0.00    -0.062 SA
ATOM     22  C   UNL d   1      37.651  -6.600  -7.163  0.00  0.00     0.087 A 
BRANCH  20  23
ATOM     23  N   UNL d   1      37.647  -5.490 -10.717  0.00  0.00    -0.378 N 
ATOM     24  H   UNL d   1      37.979  -4.560 -10.936  0.00  0.00     0.158 HD
ATOM     25  H   UNL d   1      37.698  -6.152 -11.482  0.00  0.00     0.158 HD
ENDBRANCH  20  23
ENDBRANCH  14  18
ENDBRANCH  11  14
ENDBRANCH   5  10
BRANCH   7  26
ATOM     26  C   UNL d   1      40.560  -6.038  -0.421  0.00  0.00     0.194 C 
ATOM     27  OXT UNL d   1      40.549  -4.822  -0.275  0.00  0.00    -0.645 OA
BRANCH  26  28
ATOM     28  O   UNL d   1      41.632  -6.769  -0.064  0.00  0.00    -0.772 OA
ATOM     29  H   UNL d   1      42.214  -7.065  -0.798  0.00  0.00     0.167 HD
ENDBRANCH  26  28
ENDBRANCH   7  26
BRANCH   8  30
ATOM     30  C   UNL d   1      38.076  -6.805   1.029  0.00  0.00     0.216 C 
BRANCH  30  31
ATOM     31  O   UNL d   1      39.077  -7.471   1.810  0.00  0.00    -0.317 OA
BRANCH  31  32
ATOM     32  C   UNL d   1      38.695  -7.893   3.043  0.00  0.00     0.255 C 
ATOM     33  O   UNL d   1      39.289  -7.667   4.089  0.00  0.00    -0.266 OA
ATOM     34  C   UNL d   1      37.426  -8.679   2.943  0.00  0.00     0.126 C 
ENDBRANCH  31  32
ENDBRANCH  30  31
ENDBRANCH   8  30
TORSDOF 10
ENDMDL
MODEL 3
REMARK VINA RESULT:      -7.2      2.730      8.304
REMARK  10 active torsions:
REMARK  status: ('A' for Active; 'I' for Inactive)
REMARK    1  A    between atoms: O_4  and  C_21 
REMARK    2  A    between atoms: O_4  and  C_26 
REMARK    3  A    between atoms: O_5  and  C_22 
REMARK    4  A    between atoms: O_8  and  N_12 
REMARK    5  A    between atoms: CA_16  and  N_11 
REMARK       I    between atoms: N_11  and  C_23 
REMARK    6  A    between atoms: N_14  and  C_29 
REMARK    7  A    between atoms: CA_18  and  C_22 
REMARK    8  A    between atoms: C_19  and  C_21 
REMARK    9  A    between atoms: C_23  and  C_24 
REMARK   10  A    between atoms: C_24  and  C_25 
ROOT
ATOM      1  S   UNL d   1      36.063  -6.262  -4.842  0.00  0.00    -0.136 SA
ATOM      2  O   UNL d   1      40.181  -6.486  -5.340  0.00  0.00    -0.271 OA
ATOM      3  N   UNL d   1      38.193  -7.657  -5.654  0.00  0.00    -0.293 N 
ATOM      4  C   UNL d   1      37.219  -7.642  -4.563  0.00  0.00     0.187 C 
ATOM      5  CA  UNL d   1      38.431  -7.359  -3.614  0.00  0.00     0.211 C 
ATOM      6  C   UNL d   1      39.166  -7.016  -4.947  0.00  0.00     0.251 C 
ATOM      7  CA  UNL d   1      37.849  -7.593  -6.983  0.00  0.00     0.117 C 
ATOM      8  C   UNL d   1      36.580  -7.299  -7.369  0.00  0.00    -0.013 C 
ATOM      9  C   UNL d   1      35.463  -6.947  -6.406  0.00  0.00     0.115 C 
ENDROOT
BRANCH   5  10
ATOM     10  N   UNL d   1      38.208  -6.357  -2.535  0.00  0.00    -0.339 N 
ATOM     11  C   UNL d   1      38.886  -6.523  -1.329  0.00  0.00     0.275 C 
ATOM     12  O   UNL d   1      38.735  -5.739  -0.393  0.00  0.00    -0.266 OA
ATOM     13  H   UNL d   1      37.828  -5.430  -2.734  0.00  0.00     0.163 HD
BRANCH  11  14
ATOM     14  C   UNL d   1      39.784  -7.764  -1.192  0.00  0.00     0.180 C 
ATOM     15  N   UNL d   1      39.365  -8.958  -0.874  0.00  0.00    -0.126 NA
BRANCH  15  16
ATOM     16  O   UNL d   1      37.990  -9.053  -0.660  0.00  0.00    -0.261 OA
ATOM     17  C   UNL d   1      37.474  -9.987  -1.608  0.00  0.00     0.240 C 
ENDBRANCH  15  16
BRANCH  14  18
ATOM     18  C   UNL d   1      41.227  -7.671  -1.413  0.00  0.00     0.102 A 
ATOM     19  N   UNL d   1      42.053  -6.914  -0.586  0.00  0.00    -0.222 NA
ATOM     20  C   UNL d   1      43.304  -7.057  -0.949  0.00  0.00     0.164 A 
ATOM     21  S   UNL d   1      43.577  -8.064  -2.309  0.00  0.00    -0.062 SA
ATOM     22  C   UNL d   1      41.898  -8.348  -2.420  0.00  0.00     0.087 A 
BRANCH  20  23
ATOM     23  N   UNL d   1      44.324  -6.470  -0.311  0.00  0.00    -0.378 N 
ATOM     24  H   UNL d   1      45.045  -6.022  -0.862  0.00  0.00     0.158 HD
ATOM     25  H   UNL d   1      44.124  -6.022   0.575  0.00  0.00     0.158 HD
ENDBRANCH  20  23
ENDBRANCH  14  18
ENDBRANCH  11  14
ENDBRANCH   5  10
BRANCH   7  26
ATOM     26  C   UNL d   1      38.885  -8.001  -8.007  0.00  0.00     0.194 C 
ATOM     27  OXT UNL d   1      39.654  -7.207  -8.534  0.00  0.00    -0.645 OA
BRANCH  26  28
ATOM     28  O   UNL d   1      38.844  -9.288  -8.395  0.00  0.00    -0.772 OA
ATOM     29  H   UNL d   1      39.476  -9.544  -9.102  0.00  0.00     0.167 HD
ENDBRANCH  26  28
ENDBRANCH   7  26
BRANCH   8  30
ATOM     30  C   UNL d   1      36.130  -7.218  -8.818  0.00  0.00     0.216 C 
BRANCH  30  31
ATOM     31  O   UNL d   1      36.207  -5.863  -9.281  0.00  0.00    -0.317 OA
BRANCH  31  32
ATOM     32  C   UNL d   1      37.076  -5.624 -10.297  0.00  0.00     0.255 C 
ATOM     33  O   UNL d   1      38.081  -4.929 -10.227  0.00  0.00    -0.266 OA
ATOM     34  C   UNL d   1      36.628  -6.343 -11.531  0.00  0.00     0.126 C 
ENDBRANCH  31  32
ENDBRANCH  30  31
ENDBRANCH   8  30
TORSDOF 10
ENDMDL
MODEL 4
REMARK VINA RESULT:      -7.2      3.755      6.412
REMARK  10 active torsions:
REMARK  status: ('A' for Active; 'I' for Inactive)
REMARK    1  A    between atoms: O_4  and  C_21 
REMARK    2  A    between atoms: O_4  and  C_26 
REMARK    3  A    between atoms: O_5  and  C_22 
REMARK    4  A    between atoms: O_8  and  N_12 
REMARK    5  A    between atoms: CA_16  and  N_11 
REMARK       I    between atoms: N_11  and  C_23 
REMARK    6  A    between atoms: N_14  and  C_29 
REMARK    7  A    between atoms: CA_18  and  C_22 
REMARK    8  A    between atoms: C_19  and  C_21 
REMARK    9  A    between atoms: C_23  and  C_24 
REMARK   10  A    between atoms: C_24  and  C_25 
ROOT
ATOM      1  S   UNL d   1      38.214 -10.779  -3.806  0.00  0.00    -0.136 SA
ATOM      2  O   UNL d   1      40.031  -8.602  -0.771  0.00  0.00    -0.271 OA
ATOM      3  N   UNL d   1      38.874  -8.400  -2.781  0.00  0.00    -0.293 N 
ATOM      4  C   UNL d   1      39.259  -9.289  -3.877  0.00  0.00     0.187 C 
ATOM      5  CA  UNL d   1      40.658  -9.383  -3.179  0.00  0.00     0.211 C 
ATOM      6  C   UNL d   1      39.891  -8.783  -1.960  0.00  0.00     0.251 C 
ATOM      7  CA  UNL d   1      37.574  -8.050  -2.508  0.00  0.00     0.117 C 
ATOM      8  C   UNL d   1      36.531  -8.676  -3.115  0.00  0.00    -0.013 C 
ATOM      9  C   UNL d   1      36.687  -9.842  -4.070  0.00  0.00     0.115 C 
ENDROOT
BRANCH   5  10
ATOM     10  N   UNL d   1      41.295 -10.728  -3.150  0.00  0.00    -0.339 N 
ATOM     11  C   UNL d   1      42.661 -10.818  -3.411  0.00  0.00     0.275 C 
ATOM     12  O   UNL d   1      43.245 -11.900  -3.415  0.00  0.00    -0.266 OA
ATOM     13  H   UNL d   1      40.857 -11.519  -2.675  0.00  0.00     0.163 HD
BRANCH  11  14
ATOM     14  C   UNL d   1      43.398  -9.514  -3.755  0.00  0.00     0.180 C 
ATOM     15  N   UNL d   1      43.393  -8.938  -4.926  0.00  0.00    -0.126 NA
BRANCH  15  16
ATOM     16  O   UNL d   1      42.640  -9.603  -5.895  0.00  0.00    -0.261 OA
ATOM     17  C   UNL d   1      41.864  -8.621  -6.580  0.00  0.00     0.240 C 
ENDBRANCH  15  16
BRANCH  14  18
ATOM     18  C   UNL d   1      44.191  -8.813  -2.745  0.00  0.00     0.102 A 
ATOM     19  N   UNL d   1      43.687  -7.729  -2.031  0.00  0.00    -0.222 NA
ATOM     20  C   UNL d   1      44.561  -7.332  -1.140  0.00  0.00     0.164 A 
ATOM     21  S   UNL d   1      46.045  -8.189  -1.115  0.00  0.00    -0.062 SA
ATOM     22  C   UNL d   1      45.478  -9.182  -2.382  0.00  0.00     0.087 A 
BRANCH  20  23
ATOM     23  N   UNL d   1      44.333  -6.327  -0.286  0.00  0.00    -0.378 N 
ATOM     24  H   UNL d   1      43.570  -5.691  -0.479  0.00  0.00     0.158 HD
ATOM     25  H   UNL d   1      44.501  -6.504   0.698  0.00  0.00     0.158 HD
ENDBRANCH  20  23
ENDBRANCH  14  18
ENDBRANCH  11  14
ENDBRANCH   5  10
BRANCH   7  26
ATOM     26  C   UNL d   1      37.332  -6.848  -1.622  0.00  0.00     0.194 C 
ATOM     27  OXT UNL d   1      36.988  -6.938  -0.450  0.00  0.00    -0.645 OA
BRANCH  26  28
ATOM     28  O   UNL d   1      37.411  -5.650  -2.230  0.00  0.00    -0.772 OA
ATOM     29  H   UNL d   1      36.665  -5.033  -2.065  0.00  0.00     0.167 HD
ENDBRANCH  26  28
ENDBRANCH   7  26
BRANCH   8  30
ATOM     30  C   UNL d   1      35.072  -8.334  -2.865  0.00  0.00     0.216 C 
BRANCH  30  31
ATOM     31  O   UNL d   1      34.252  -8.908  -3.890  0.00  0.00    -0.317 OA
BRANCH  31  32
ATOM     32  C   UNL d   1      33.238  -8.131  -4.354  0.00  0.00     0.255 C 
ATOM     33  O   UNL d   1      32.926  -7.032  -3.918  0.00  0.00    -0.266 OA
ATOM     34  C   UNL d   1      32.552  -8.816  -5.495  0.00  0.00     0.126 C 
ENDBRANCH  31  32
ENDBRANCH  30  31
ENDBRANCH   8  30
TORSDOF 10
ENDMDL
MODEL 5
REMARK VINA RESULT:      -7.2      2.150      2.742
REMARK  10 active torsions:
REMARK  status: ('A' for Active; 'I' for Inactive)
REMARK    1  A    between atoms: O_4  and  C_21 
REMARK    2  A    between atoms: O_4  and  C_26 
REMARK    3  A    between atoms: O_5  and  C_22 
REMARK    4  A    between atoms: O_8  and  N_12 
REMARK    5  A    between atoms: CA_16  and  N_11 
REMARK       I    between atoms: N_11  and  C_23 
REMARK    6  A    between atoms: N_14  and  C_29 
REMARK    7  A    between atoms: CA_18  and  C_22 
REMARK    8  A    between atoms: C_19  and  C_21 
REMARK    9  A    between atoms: C_23  and  C_24 
REMARK   10  A    between atoms: C_24  and  C_25 
ROOT
ATOM      1  S   UNL d   1      37.579  -8.514  -3.297  0.00  0.00    -0.136 SA
ATOM      2  O   UNL d   1      41.635  -8.976  -2.531  0.00  0.00    -0.271 OA
ATOM      3  N   UNL d   1      39.946  -7.391  -2.767  0.00  0.00    -0.293 N 
ATOM      4  C   UNL d   1      39.013  -7.556  -3.881  0.00  0.00     0.187 C 
ATOM      5  CA  UNL d   1      40.153  -8.364  -4.588  0.00  0.00     0.211 C 
ATOM      6  C   UNL d   1      40.768  -8.405  -3.155  0.00  0.00     0.251 C 
ATOM      7  CA  UNL d   1      39.569  -6.960  -1.518  0.00  0.00     0.117 C 
ATOM      8  C   UNL d   1      38.259  -6.854  -1.172  0.00  0.00    -0.013 C 
ATOM      9  C   UNL d   1      37.112  -7.261  -2.076  0.00  0.00     0.115 C 
ENDROOT
BRANCH   5  10
ATOM     10  N   UNL d   1      39.738  -9.590  -5.324  0.00  0.00    -0.339 N 
ATOM     11  C   UNL d   1      39.677  -9.536  -6.715  0.00  0.00     0.275 C 
ATOM     12  O   UNL d   1      39.328 -10.509  -7.382  0.00  0.00    -0.266 OA
ATOM     13  H   UNL d   1      39.782 -10.515  -4.894  0.00  0.00     0.163 HD
BRANCH  11  14
ATOM     14  C   UNL d   1      40.003  -8.190  -7.382  0.00  0.00     0.180 C 
ATOM     15  N   UNL d   1      41.205  -7.716  -7.561  0.00  0.00    -0.126 NA
BRANCH  15  16
ATOM     16  O   UNL d   1      42.229  -8.542  -7.096  0.00  0.00    -0.261 OA
ATOM     17  C   UNL d   1      43.421  -8.175  -7.789  0.00  0.00     0.240 C 
ENDBRANCH  15  16
BRANCH  14  18
ATOM     18  C   UNL d   1      38.934  -7.318  -7.870  0.00  0.00     0.102 A 
ATOM     19  N   UNL d   1      38.037  -6.695  -7.005  0.00  0.00    -0.222 NA
ATOM     20  C   UNL d   1      37.231  -5.914  -7.681  0.00  0.00     0.164 A 
ATOM     21  S   UNL d   1      37.460  -5.894  -9.380  0.00  0.00    -0.062 SA
ATOM     22  C   UNL d   1      38.745  -7.003  -9.207  0.00  0.00     0.087 A 
BRANCH  20  23
ATOM     23  N   UNL d   1      36.285  -5.161  -7.106  0.00  0.00    -0.378 N 
ATOM     24  H   UNL d   1      36.389  -4.155  -7.124  0.00  0.00     0.158 HD
ATOM     25  H   UNL d   1      35.329  -5.492  -7.162  0.00  0.00     0.158 HD
ENDBRANCH  20  23
ENDBRANCH  14  18
ENDBRANCH  11  14
ENDBRANCH   5  10
BRANCH   7  26
ATOM     26  C   UNL d   1      40.648  -6.465  -0.580  0.00  0.00     0.194 C 
ATOM     27  OXT UNL d   1      40.919  -5.279  -0.439  0.00  0.00    -0.645 OA
BRANCH  26  28
ATOM     28  O   UNL d   1      41.381  -7.420   0.021  0.00  0.00    -0.772 OA
ATOM     29  H   UNL d   1      40.948  -7.887   0.768  0.00  0.00     0.167 HD
ENDBRANCH  26  28
ENDBRANCH   7  26
BRANCH   8  30
ATOM     30  C   UNL d   1      37.773  -6.378   0.186  0.00  0.00     0.216 C 
BRANCH  30  31
ATOM     31  O   UNL d   1      37.356  -7.498   0.977  0.00  0.00    -0.317 OA
BRANCH  31  32
ATOM     32  C   UNL d   1      38.124  -7.790   2.059  0.00  0.00     0.255 C 
ATOM     33  O   UNL d   1      39.251  -7.362   2.269  0.00  0.00    -0.266 OA
ATOM     34  C   UNL d   1      37.386  -8.716   2.974  0.00  0.00     0.126 C 
ENDBRANCH  31  32
ENDBRANCH  30  31
ENDBRANCH   8  30
TORSDOF 10
ENDMDL
MODEL 6
REMARK VINA RESULT:      -6.9      2.789      4.358
REMARK  10 active torsions:
REMARK  status: ('A' for Active; 'I' for Inactive)
REMARK    1  A    between atoms: O_4  and  C_21 
REMARK    2  A    between atoms: O_4  and  C_26 
REMARK    3  A    between atoms: O_5  and  C_22 
REMARK    4  A    between atoms: O_8  and  N_12 
REMARK    5  A    between atoms: CA_16  and  N_11 
REMARK       I    between atoms: N_11  and  C_23 
REMARK    6  A    between atoms: N_14  and  C_29 
REMARK    7  A    between atoms: CA_18  and  C_22 
REMARK    8  A    between atoms: C_19  and  C_21 
REMARK    9  A    between atoms: C_23  and  C_24 
REMARK   10  A    between atoms: C_24  and  C_25 
ROOT
ATOM      1  S   UNL d   1      37.546  -8.256  -3.259  0.00  0.00    -0.136 SA
ATOM      2  O   UNL d   1      41.572  -8.952  -2.514  0.00  0.00    -0.271 OA
ATOM      3  N   UNL d   1      39.976  -7.272  -2.738  0.00  0.00    -0.293 N 
ATOM      4  C   UNL d   1      39.030  -7.380  -3.848  0.00  0.00     0.187 C 
ATOM      5  CA  UNL d   1      40.118  -8.250  -4.562  0.00  0.00     0.211 C 
ATOM      6  C   UNL d   1      40.737  -8.330  -3.132  0.00  0.00     0.251 C 
ATOM      7  CA  UNL d   1      39.630  -6.823  -1.486  0.00  0.00     0.117 C 
ATOM      8  C   UNL d   1      38.330  -6.643  -1.134  0.00  0.00    -0.013 C 
ATOM      9  C   UNL d   1      37.157  -6.981  -2.033  0.00  0.00     0.115 C 
ENDROOT
BRANCH   5  10
ATOM     10  N   UNL d   1      39.630  -9.448  -5.299  0.00  0.00    -0.339 N 
ATOM     11  C   UNL d   1      39.921  -9.551  -6.658  0.00  0.00     0.275 C 
ATOM     12  O   UNL d   1      39.536 -10.509  -7.328  0.00  0.00    -0.266 OA
ATOM     13  H   UNL d   1      39.361 -10.305  -4.812  0.00  0.00     0.163 HD
BRANCH  11  14
ATOM     14  C   UNL d   1      40.692  -8.388  -7.303  0.00  0.00     0.180 C 
ATOM     15  N   UNL d   1      40.148  -7.294  -7.763  0.00  0.00    -0.126 NA
BRANCH  15  16
ATOM     16  O   UNL d   1      38.760  -7.235  -7.626  0.00  0.00    -0.261 OA
ATOM     17  C   UNL d   1      38.236  -6.685  -8.833  0.00  0.00     0.240 C 
ENDBRANCH  15  16
BRANCH  14  18
ATOM     18  C   UNL d   1      42.146  -8.444  -7.452  0.00  0.00     0.102 A 
ATOM     19  N   UNL d   1      42.895  -7.328  -7.815  0.00  0.00    -0.222 NA
ATOM     20  C   UNL d   1      44.172  -7.621  -7.806  0.00  0.00     0.164 A 
ATOM     21  S   UNL d   1      44.564  -9.241  -7.403  0.00  0.00    -0.062 SA
ATOM     22  C   UNL d   1      42.902  -9.581  -7.210  0.00  0.00     0.087 A 
BRANCH  20  23
ATOM     23  N   UNL d   1      45.131  -6.730  -8.082  0.00  0.00    -0.378 N 
ATOM     24  H   UNL d   1      44.920  -5.745  -7.983  0.00  0.00     0.158 HD
ATOM     25  H   UNL d   1      46.085  -6.986  -7.854  0.00  0.00     0.158 HD
ENDBRANCH  20  23
ENDBRANCH  14  18
ENDBRANCH  11  14
ENDBRANCH   5  10
BRANCH   7  26
ATOM     26  C   UNL d   1      40.740  -6.393  -0.552  0.00  0.00     0.194 C 
ATOM     27  OXT UNL d   1      41.048  -5.221  -0.373  0.00  0.00    -0.645 OA
BRANCH  26  28
ATOM     28  O   UNL d   1      41.456  -7.390  -0.000  0.00  0.00    -0.772 OA
ATOM     29  H   UNL d   1      41.434  -8.249  -0.475  0.00  0.00     0.167 HD
ENDBRANCH  26  28
ENDBRANCH   7  26
BRANCH   8  30
ATOM     30  C   UNL d   1      37.878  -6.144   0.228  0.00  0.00     0.216 C 
BRANCH  30  31
ATOM     31  O   UNL d   1      37.342  -7.229   0.995  0.00  0.00    -0.317 OA
BRANCH  31  32
ATOM     32  C   UNL d   1      38.062  -7.611   2.082  0.00  0.00     0.255 C 
ATOM     33  O   UNL d   1      39.266  -7.455   2.229  0.00  0.00    -0.266 OA
ATOM     34  C   UNL d   1      37.161  -8.251   3.091  0.00  0.00     0.126 C 
ENDBRANCH  31  32
ENDBRANCH  30  31
ENDBRANCH   8  30
TORSDOF 10
ENDMDL
MODEL 7
REMARK VINA RESULT:      -6.7      3.602      5.603
REMARK  10 active torsions:
REMARK  status: ('A' for Active; 'I' for Inactive)
REMARK    1  A    between atoms: O_4  and  C_21 
REMARK    2  A    between atoms: O_4  and  C_26 
REMARK    3  A    between atoms: O_5  and  C_22 
REMARK    4  A    between atoms: O_8  and  N_12 
REMARK    5  A    between atoms: CA_16  and  N_11 
REMARK       I    between atoms: N_11  and  C_23 
REMARK    6  A    between atoms: N_14  and  C_29 
REMARK    7  A    between atoms: CA_18  and  C_22 
REMARK    8  A    between atoms: C_19  and  C_21 
REMARK    9  A    between atoms: C_23  and  C_24 
REMARK   10  A    between atoms: C_24  and  C_25 
ROOT
ATOM      1  S   UNL d   1      39.731  -6.999  -5.655  0.00  0.00    -0.136 SA
ATOM      2  O   UNL d   1      36.050  -6.139  -7.377  0.00  0.00    -0.271 OA
ATOM      3  N   UNL d   1      37.178  -7.684  -6.049  0.00  0.00    -0.293 N 
ATOM      4  C   UNL d   1      38.519  -8.087  -6.470  0.00  0.00     0.187 C 
ATOM      5  CA  UNL d   1      38.080  -7.685  -7.918  0.00  0.00     0.211 C 
ATOM      6  C   UNL d   1      36.920  -6.956  -7.171  0.00  0.00     0.251 C 
ATOM      7  CA  UNL d   1      36.821  -7.481  -4.738  0.00  0.00     0.117 C 
ATOM      8  C   UNL d   1      37.754  -7.440  -3.751  0.00  0.00    -0.013 C 
ATOM      9  C   UNL d   1      39.247  -7.535  -3.995  0.00  0.00     0.115 C 
ENDROOT
BRANCH   5  10
ATOM     10  N   UNL d   1      39.090  -6.963  -8.740  0.00  0.00    -0.339 N 
ATOM     11  C   UNL d   1      39.137  -7.224 -10.108  0.00  0.00     0.275 C 
ATOM     12  O   UNL d   1      39.956  -6.672 -10.841  0.00  0.00    -0.266 OA
ATOM     13  H   UNL d   1      39.532  -6.102  -8.413  0.00  0.00     0.163 HD
BRANCH  11  14
ATOM     14  C   UNL d   1      38.163  -8.279 -10.656  0.00  0.00     0.180 C 
ATOM     15  N   UNL d   1      38.345  -9.570 -10.592  0.00  0.00    -0.126 NA
BRANCH  15  16
ATOM     16  O   UNL d   1      39.528  -9.958  -9.962  0.00  0.00    -0.261 OA
ATOM     17  C   UNL d   1      39.343 -11.293  -9.493  0.00  0.00     0.240 C 
ENDBRANCH  15  16
BRANCH  14  18
ATOM     18  C   UNL d   1      36.922  -7.879 -11.319  0.00  0.00     0.102 A 
ATOM     19  N   UNL d   1      35.823  -8.731 -11.406  0.00  0.00    -0.222 NA
ATOM     20  C   UNL d   1      34.819  -8.112 -11.976  0.00  0.00     0.164 A 
ATOM     21  S   UNL d   1      35.122  -6.501 -12.478  0.00  0.00    -0.062 SA
ATOM     22  C   UNL d   1      36.714  -6.626 -11.876  0.00  0.00     0.087 A 
BRANCH  20  23
ATOM     23  N   UNL d   1      33.619  -8.676 -12.161  0.00  0.00    -0.378 N 
ATOM     24  H   UNL d   1      33.576  -9.669 -12.350  0.00  0.00     0.158 HD
ATOM     25  H   UNL d   1      32.844  -8.311 -11.621  0.00  0.00     0.158 HD
ENDBRANCH  20  23
ENDBRANCH  14  18
ENDBRANCH  11  14
ENDBRANCH   5  10
BRANCH   7  26
ATOM     26  C   UNL d   1      35.348  -7.450  -4.398  0.00  0.00     0.194 C 
ATOM     27  OXT UNL d   1      34.704  -8.452  -4.113  0.00  0.00    -0.645 OA
BRANCH  26  28
ATOM     28  O   UNL d   1      34.744  -6.254  -4.532  0.00  0.00    -0.772 OA
ATOM     29  H   UNL d   1      33.908  -6.250  -5.046  0.00  0.00     0.167 HD
ENDBRANCH  26  28
ENDBRANCH   7  26
BRANCH   8  30
ATOM     30  C   UNL d   1      37.429  -7.228  -2.282  0.00  0.00     0.216 C 
BRANCH  30  31
ATOM     31  O   UNL d   1      37.946  -5.964  -1.844  0.00  0.00    -0.317 OA
BRANCH  31  32
ATOM     32  C   UNL d   1      38.510  -5.941  -0.608  0.00  0.00     0.255 C 
ATOM     33  O   UNL d   1      39.657  -5.600  -0.355  0.00  0.00    -0.266 OA
ATOM     34  C   UNL d   1      37.515  -6.392   0.415  0.00  0.00     0.126 C 
ENDBRANCH  31  32
ENDBRANCH  30  31
ENDBRANCH   8  30
TORSDOF 10
ENDMDL
MODEL 8
REMARK VINA RESULT:      -6.7      3.146      8.144
REMARK  10 active torsions:
REMARK  status: ('A' for Active; 'I' for Inactive)
REMARK    1  A    between atoms: O_4  and  C_21 
REMARK    2  A    between atoms: O_4  and  C_26 
REMARK    3  A    between atoms: O_5  and  C_22 
REMARK    4  A    between atoms: O_8  and  N_12 
REMARK    5  A    between atoms: CA_16  and  N_11 
REMARK       I    between atoms: N_11  and  C_23 
REMARK    6  A    between atoms: N_14  and  C_29 
REMARK    7  A    between atoms: CA_18  and  C_22 
REMARK    8  A    between atoms: C_19  and  C_21 
REMARK    9  A    between atoms: C_23  and  C_24 
REMARK   10  A    between atoms: C_24  and  C_25 
ROOT
ATOM      1  S   UNL d   1      39.984  -9.043  -6.859  0.00  0.00    -0.136 SA
ATOM      2  O   UNL d   1      36.435  -8.434  -4.789  0.00  0.00    -0.271 OA
ATOM      3  N   UNL d   1      38.131  -7.343  -5.953  0.00  0.00    -0.293 N 
ATOM      4  C   UNL d   1      39.510  -7.744  -5.674  0.00  0.00     0.187 C 
ATOM      5  CA  UNL d   1      38.984  -8.227  -4.280  0.00  0.00     0.211 C 
ATOM      6  C   UNL d   1      37.588  -8.107  -4.966  0.00  0.00     0.251 C 
ATOM      7  CA  UNL d   1      37.671  -7.026  -7.208  0.00  0.00     0.117 C 
ATOM      8  C   UNL d   1      38.420  -7.265  -8.317  0.00  0.00    -0.013 C 
ATOM      9  C   UNL d   1      39.769  -7.956  -8.291  0.00  0.00     0.115 C 
ENDROOT
BRANCH   5  10
ATOM     10  N   UNL d   1      39.530  -9.518  -3.777  0.00  0.00    -0.339 N 
ATOM     11  C   UNL d   1      40.274  -9.506  -2.600  0.00  0.00     0.275 C 
ATOM     12  O   UNL d   1      40.764 -10.536  -2.138  0.00  0.00    -0.266 OA
ATOM     13  H   UNL d   1      39.149 -10.416  -4.081  0.00  0.00     0.163 HD
BRANCH  11  14
ATOM     14  C   UNL d   1      40.513  -8.142  -1.932  0.00  0.00     0.180 C 
ATOM     15  N   UNL d   1      41.509  -7.343  -2.199  0.00  0.00    -0.126 NA
BRANCH  15  16
ATOM     16  O   UNL d   1      42.387  -7.816  -3.176  0.00  0.00    -0.261 OA
ATOM     17  C   UNL d   1      43.560  -8.277  -2.508  0.00  0.00     0.240 C 
ENDBRANCH  15  16
BRANCH  14  18
ATOM     18  C   UNL d   1      39.599  -7.641  -0.906  0.00  0.00     0.102 A 
ATOM     19  N   UNL d   1      39.615  -8.127   0.399  0.00  0.00    -0.222 NA
ATOM     20  C   UNL d   1      38.757  -7.465   1.136  0.00  0.00     0.164 A 
ATOM     21  S   UNL d   1      37.854  -6.254   0.326  0.00  0.00    -0.062 SA
ATOM     22  C   UNL d   1      38.678  -6.626  -1.122  0.00  0.00     0.087 A 
BRANCH  20  23
ATOM     23  N   UNL d   1      38.582  -7.695   2.443  0.00  0.00    -0.378 N 
ATOM     24  H   UNL d   1      38.843  -6.971   3.100  0.00  0.00     0.158 HD
ATOM     25  H   UNL d   1      37.778  -8.248   2.715  0.00  0.00     0.158 HD
ENDBRANCH  20  23
ENDBRANCH  14  18
ENDBRANCH  11  14
ENDBRANCH   5  10
BRANCH   7  26
ATOM     26  C   UNL d   1      36.367  -6.268  -7.318  0.00  0.00     0.194 C 
ATOM     27  OXT UNL d   1      35.307  -6.799  -7.627  0.00  0.00    -0.645 OA
BRANCH  26  28
ATOM     28  O   UNL d   1      36.453  -4.934  -7.159  0.00  0.00    -0.772 OA
ATOM     29  H   UNL d   1      37.018  -4.625  -6.418  0.00  0.00     0.167 HD
ENDBRANCH  26  28
ENDBRANCH   7  26
BRANCH   8  30
ATOM     30  C   UNL d   1      37.976  -6.933  -9.731  0.00  0.00     0.216 C 
BRANCH  30  31
ATOM     31  O   UNL d   1      38.728  -5.821 -10.232  0.00  0.00    -0.317 OA
BRANCH  31  32
ATOM     32  C   UNL d   1      39.202  -5.937 -11.500  0.00  0.00     0.255 C 
ATOM     33  O   UNL d   1      40.212  -6.544 -11.829  0.00  0.00    -0.266 OA
ATOM     34  C   UNL d   1      38.300  -5.214 -12.450  0.00  0.00     0.126 C 
ENDBRANCH  31  32
ENDBRANCH  30  31
ENDBRANCH   8  30
TORSDOF 10
ENDMDL
MODEL 9
REMARK VINA RESULT:      -6.6      3.833      8.883
REMARK  10 active torsions:
REMARK  status: ('A' for Active; 'I' for Inactive)
REMARK    1  A    between atoms: O_4  and  C_21 
REMARK    2  A    between atoms: O_4  and  C_26 
REMARK    3  A    between atoms: O_5  and  C_22 
REMARK    4  A    between atoms: O_8  and  N_12 
REMARK    5  A    between atoms: CA_16  and  N_11 
REMARK       I    between atoms: N_11  and  C_23 
REMARK    6  A    between atoms: N_14  and  C_29 
REMARK    7  A    between atoms: CA_18  and  C_22 
REMARK    8  A    between atoms: C_19  and  C_21 
REMARK    9  A    between atoms: C_23  and  C_24 
REMARK   10  A    between atoms: C_24  and  C_25 
ROOT
ATOM      1  S   UNL d   1      36.481  -5.653  -9.201  0.00  0.00    -0.136 SA
ATOM      2  O   UNL d   1      39.491  -6.906  -6.628  0.00  0.00    -0.271 OA
ATOM      3  N   UNL d   1      38.129  -7.593  -8.387  0.00  0.00    -0.293 N 
ATOM      4  C   UNL d   1      36.713  -7.234  -8.326  0.00  0.00     0.187 C 
ATOM      5  CA  UNL d   1      36.899  -7.154  -6.774  0.00  0.00     0.211 C 
ATOM      6  C   UNL d   1      38.416  -7.135  -7.137  0.00  0.00     0.251 C 
ATOM      7  CA  UNL d   1      38.868  -7.583  -9.546  0.00  0.00     0.117 C 
ATOM      8  C   UNL d   1      38.380  -7.035 -10.689  0.00  0.00    -0.013 C 
ATOM      9  C   UNL d   1      37.041  -6.330 -10.783  0.00  0.00     0.115 C 
ENDROOT
BRANCH   5  10
ATOM     10  N   UNL d   1      36.220  -6.023  -6.082  0.00  0.00    -0.339 N 
ATOM     11  C   UNL d   1      35.514  -6.294  -4.912  0.00  0.00     0.275 C 
ATOM     12  O   UNL d   1      34.920  -5.408  -4.300  0.00  0.00    -0.266 OA
ATOM     13  H   UNL d   1      36.485  -5.052  -6.255  0.00  0.00     0.163 HD
BRANCH  11  14
ATOM     14  C   UNL d   1      35.455  -7.759  -4.449  0.00  0.00     0.180 C 
ATOM     15  N   UNL d   1      34.644  -8.662  -4.927  0.00  0.00    -0.126 NA
BRANCH  15  16
ATOM     16  O   UNL d   1      33.795  -8.203  -5.936  0.00  0.00    -0.261 OA
ATOM     17  C   UNL d   1      32.535  -8.849  -5.759  0.00  0.00     0.240 C 
ENDBRANCH  15  16
BRANCH  14  18
ATOM     18  C   UNL d   1      36.340  -8.246  -3.391  0.00  0.00     0.102 A 
ATOM     19  N   UNL d   1      36.640  -7.479  -2.267  0.00  0.00    -0.222 NA
ATOM     20  C   UNL d   1      37.387  -8.167  -1.441  0.00  0.00     0.164 A 
ATOM     21  S   UNL d   1      37.812  -9.746  -1.954  0.00  0.00    -0.062 SA
ATOM     22  C   UNL d   1      36.918  -9.506  -3.388  0.00  0.00     0.087 A 
BRANCH  20  23
ATOM     23  N   UNL d   1      37.802  -7.694  -0.259  0.00  0.00    -0.378 N 
ATOM     24  H   UNL d   1      38.618  -8.111   0.170  0.00  0.00     0.158 HD
ATOM     25  H   UNL d   1      37.693  -6.701  -0.091  0.00  0.00     0.158 HD
ENDBRANCH  20  23
ENDBRANCH  14  18
ENDBRANCH  11  14
ENDBRANCH   5  10
BRANCH   7  26
ATOM     26  C   UNL d   1      40.183  -8.330  -9.557  0.00  0.00     0.194 C 
ATOM     27  OXT UNL d   1      41.255  -7.801  -9.292  0.00  0.00    -0.645 OA
BRANCH  26  28
ATOM     28  O   UNL d   1      40.126  -9.603  -9.988  0.00  0.00    -0.772 OA
ATOM     29  H   UNL d   1      39.734 -10.251  -9.363  0.00  0.00     0.167 HD
ENDBRANCH  26  28
ENDBRANCH   7  26
BRANCH   8  30
ATOM     30  C   UNL d   1      39.138  -6.997 -12.005  0.00  0.00     0.216 C 
BRANCH  30  31
ATOM     31  O   UNL d   1      40.024  -5.870 -12.027  0.00  0.00    -0.317 OA
BRANCH  31  32
ATOM     32  C   UNL d   1      39.462  -4.669 -12.326  0.00  0.00     0.255 C 
ATOM     33  O   UNL d   1      39.396  -3.708 -11.573  0.00  0.00    -0.266 OA
ATOM     34  C   UNL d   1      38.935  -4.687 -13.726  0.00  0.00     0.126 C 
ENDBRANCH  31  32
ENDBRANCH  30  31
ENDBRANCH   8  30
TORSDOF 10
ENDMDL
