@<TRIPOS>MOLECULE
5742673
 47 49 0 0 0
SMALL
GASTEIGER

@<TRIPOS>ATOM
      1 S           1.3736    0.9724    0.6641 S.3     1  UNL11      -0.1310
      2 S           0.3116    1.2590   -4.2224 S.3     1  UNL11      -0.0604
      3 O          -2.4959   -0.4243    1.2582 O.2     1  UNL11      -0.2731
      4 O           2.2436   -3.2710    1.8356 O.3     1  UNL11      -0.4603
      5 O          -2.0144   -2.8554   -0.7280 O.3     1  UNL11      -0.4763
      6 OXT        -0.4644   -4.0767    0.3224 O.2     1  UNL11      -0.2437
      7 O          -0.1995    4.7114    0.7363 O.2     1  UNL11      -0.2683
      8 O           2.5619    4.4259    0.1128 O.2     1  UNL11      -0.3964
      9 O           0.3461   -4.5539    1.9913 O.2     1  UNL11      -0.2512
     10 N          -0.6604   -0.5078   -0.1761 N.am    1  UNL11      -0.2489
     11 N          -1.3741    2.7809    0.4817 N.am    1  UNL11      -0.2963
     12 N           2.0863    3.5189   -0.8300 N.2     1  UNL11      -0.0779
     13 N          -0.9071    1.9263   -2.0632 N.pl3   1  UNL11      -0.2233
     14 N          -2.2832    0.9561   -3.6623 N.pl3   1  UNL11      -0.3375
     15 C           0.0022    0.7423   -0.5149 C.3     1  UNL11       0.1042
     16 CA         -1.3875    1.4263   -0.1903 C.3     1  UNL11       0.1286
     17 C          -1.6694    0.0794    0.5197 C.2     1  UNL11       0.2440
     18 CA         -0.0196   -1.7151    0.0277 C.2     1  UNL11       0.1252
     19 C           1.3366   -1.7738    0.1541 C.2     1  UNL11       0.0056
     20 C           2.2313   -0.5511    0.1278 C.3     1  UNL11       0.0220
     21 C           2.1026   -3.0630    0.4207 C.3     1  UNL11       0.1166
     22 C          -0.8514   -2.9759   -0.0550 C.2     1  UNL11       0.3515
     23 C          -0.2833    3.6021    0.2146 C.2     1  UNL11       0.2684
     24 C           0.8276    3.1801   -0.7828 C.2     1  UNL11       0.1897
     25 C           0.4012    2.3700   -1.9300 C.3     1  UNL11       0.1067
     26 C           1.1705   -3.7984    2.4807 C.2     1  UNL11       0.3043
     27 C           1.2190    2.0522   -3.0039 C.3     1  UNL11       0.0067
     28 C           1.1505   -3.3244    3.9027 C.3     1  UNL11       0.0332
     29 C          -1.0882    1.3854   -3.2404 C.3     1  UNL11       0.1562
     30 C           3.6350    5.1609   -0.5159 C.3     1  UNL11       0.1072
     31 H           0.2981    0.8094   -1.5651 H       1  UNL11       0.0644
     32 HA         -2.0839    1.4640   -1.0409 H       1  UNL11       0.0622
     33 H           2.6232   -0.4108   -0.8868 H       1  UNL11       0.0424
     34 H           3.0982   -0.6755    0.7850 H       1  UNL11       0.0424
     35 H          -2.1815    3.1668    0.9508 H       1  UNL11       0.1499
     36 H           1.5846   -3.9286   -0.0081 H       1  UNL11       0.0746
     37 H           3.0924   -3.0726   -0.0592 H       1  UNL11       0.0746
     38 H          -2.3675   -1.9425   -0.7966 H       1  UNL11       0.2954
     39 H           2.2614    2.2983   -3.1554 H       1  UNL11       0.0716
     40 H           2.0811   -3.6076    4.4017 H       1  UNL11       0.0342
     41 H           1.0141   -2.2405    3.9297 H       1  UNL11       0.0342
     42 H           0.3176   -3.7966    4.4319 H       1  UNL11       0.0342
     43 H           4.2285    4.5227   -1.1837 H       1  UNL11       0.0687
     44 H           3.2552    6.0141   -1.0954 H       1  UNL11       0.0687
     45 H           4.2952    5.5397    0.2669 H       1  UNL11       0.0687
     46 H          -2.3345    0.3127   -4.4399 H       1  UNL11       0.1442
     47 H          -2.9935    0.8409   -2.9491 H       1  UNL11       0.1442
@<TRIPOS>BOND
     1     1    15    1
     2     1    20    1
     3     2    27   ar
     4     2    29   ar
     5     3    17    2
     6     4    21    1
     7     4    26    1
     8     5    22    1
     9     5    38    1
    10     6    22    2
    11     7    23    2
    12     8    12    1
    13     8    30    1
    14     9    26    2
    15    10    15    1
    16    10    17   am
    17    10    18    1
    18    16    11    1
    19    11    23   am
    20    11    35    1
    21    12    24    2
    22    13    25   ar
    23    13    29   ar
    24    14    29    1
    25    14    46    1
    26    14    47    1
    27    15    16    1
    28    15    31    1
    29    16    17    1
    30    16    32    1
    31    18    19    2
    32    18    22    1
    33    19    20    1
    34    19    21    1
    35    20    33    1
    36    20    34    1
    37    21    36    1
    38    21    37    1
    39    23    24    1
    40    24    25    1
    41    25    27   ar
    42    26    28    1
    43    27    39    1
    44    28    40    1
    45    28    41    1
    46    28    42    1
    47    30    43    1
    48    30    44    1
    49    30    45    1
