MODEL 1
REMARK VINA RESULT:      -7.5      0.000      0.000
REMARK  10 active torsions:
REMARK  status: ('A' for Active; 'I' for Inactive)
REMARK    1  A    between atoms: O_4  and  C_21 
REMARK    2  A    between atoms: O_4  and  C_26 
REMARK    3  A    between atoms: O_5  and  C_22 
REMARK    4  A    between atoms: O_8  and  N_12 
REMARK    5  A    between atoms: CA_16  and  N_11 
REMARK       I    between atoms: N_11  and  C_23 
REMARK    6  A    between atoms: N_14  and  C_29 
REMARK    7  A    between atoms: CA_18  and  C_22 
REMARK    8  A    between atoms: C_19  and  C_21 
REMARK    9  A    between atoms: C_23  and  C_24 
REMARK   10  A    between atoms: C_24  and  C_25 
ROOT
ATOM      1  S   UNL d   1      38.721  -9.784  -1.838  0.00  0.00    -0.136 SA
ATOM      2  O   UNL d   1      41.995  -7.461  -2.915  0.00  0.00    -0.271 OA
ATOM      3  N   UNL d   1      39.807  -7.381  -2.115  0.00  0.00    -0.293 N 
ATOM      4  C   UNL d   1      38.810  -8.216  -2.764  0.00  0.00     0.187 C 
ATOM      5  CA  UNL d   1      39.753  -8.148  -4.032  0.00  0.00     0.211 C 
ATOM      6  C   UNL d   1      40.801  -7.681  -2.992  0.00  0.00     0.251 C 
ATOM      7  CA  UNL d   1      39.863  -7.119  -0.759  0.00  0.00     0.117 C 
ATOM      8  C   UNL d   1      39.101  -7.830   0.121  0.00  0.00    -0.013 C 
ATOM      9  C   UNL d   1      38.188  -8.965  -0.293  0.00  0.00     0.115 C 
ENDROOT
BRANCH   5  10
ATOM     10  N   UNL d   1      39.872  -9.381  -4.899  0.00  0.00    -0.339 N 
ATOM     11  C   UNL d   1      39.137  -9.391  -6.080  0.00  0.00     0.275 C 
ATOM     12  O   UNL d   1      39.176 -10.365  -6.826  0.00  0.00    -0.266 OA
ATOM     13  H   UNL d   1      40.578 -10.090  -4.749  0.00  0.00     0.163 HD
BRANCH  11  14
ATOM     14  C   UNL d   1      38.295  -8.165  -6.524  0.00  0.00     0.180 C 
ATOM     15  N   UNL d   1      38.615  -7.162  -7.294  0.00  0.00    -0.126 NA
BRANCH  15  16
ATOM     16  O   UNL d   1      39.911  -7.105  -7.800  0.00  0.00    -0.261 OA
ATOM     17  C   UNL d   1      39.846  -7.551  -9.172  0.00  0.00     0.240 C 
ENDBRANCH  15  16
BRANCH  14  18
ATOM     18  C   UNL d   1      36.972  -8.023  -5.905  0.00  0.00     0.102 A 
ATOM     19  N   UNL d   1      36.468  -8.978  -5.033  0.00  0.00    -0.222 NA
ATOM     20  C   UNL d   1      35.365  -8.550  -4.475  0.00  0.00     0.164 A 
ATOM     21  S   UNL d   1      34.788  -7.037  -5.037  0.00  0.00    -0.062 SA
ATOM     22  C   UNL d   1      36.158  -6.911  -6.059  0.00  0.00     0.087 A 
BRANCH  20  23
ATOM     23  N   UNL d   1      34.722  -9.239  -3.526  0.00  0.00    -0.378 N 
ATOM     24  H   UNL d   1      34.897 -10.229  -3.425  0.00  0.00     0.158 HD
ATOM     25  H   UNL d   1      34.521  -8.738  -2.668  0.00  0.00     0.158 HD
ENDBRANCH  20  23
ENDBRANCH  14  18
ENDBRANCH  11  14
ENDBRANCH   5  10
BRANCH   7  26
ATOM     26  C   UNL d   1      40.668  -5.922  -0.305  0.00  0.00     0.194 C 
ATOM     27  OXT UNL d   1      40.179  -4.829  -0.041  0.00  0.00    -0.645 OA
BRANCH  26  28
ATOM     28  O   UNL d   1      42.007  -6.076  -0.357  0.00  0.00    -0.772 OA
ATOM     29  H   UNL d   1      42.320  -6.990  -0.532  0.00  0.00     0.167 HD
ENDBRANCH  26  28
ENDBRANCH   7  26
BRANCH   8  30
ATOM     30  C   UNL d   1      39.143  -7.623   1.630  0.00  0.00     0.216 C 
BRANCH  30  31
ATOM     31  O   UNL d   1      38.147  -8.438   2.269  0.00  0.00    -0.317 OA
BRANCH  31  32
ATOM     32  C   UNL d   1      37.121  -7.781   2.870  0.00  0.00     0.255 C 
ATOM     33  O   UNL d   1      36.652  -6.712   2.511  0.00  0.00    -0.266 OA
ATOM     34  C   UNL d   1      36.630  -8.573   4.044  0.00  0.00     0.126 C 
ENDBRANCH  31  32
ENDBRANCH  30  31
ENDBRANCH   8  30
TORSDOF 10
ENDMDL
MODEL 2
REMARK VINA RESULT:      -7.1      1.984      2.385
REMARK  10 active torsions:
REMARK  status: ('A' for Active; 'I' for Inactive)
REMARK    1  A    between atoms: O_4  and  C_21 
REMARK    2  A    between atoms: O_4  and  C_26 
REMARK    3  A    between atoms: O_5  and  C_22 
REMARK    4  A    between atoms: O_8  and  N_12 
REMARK    5  A    between atoms: CA_16  and  N_11 
REMARK       I    between atoms: N_11  and  C_23 
REMARK    6  A    between atoms: N_14  and  C_29 
REMARK    7  A    between atoms: CA_18  and  C_22 
REMARK    8  A    between atoms: C_19  and  C_21 
REMARK    9  A    between atoms: C_23  and  C_24 
REMARK   10  A    between atoms: C_24  and  C_25 
ROOT
ATOM      1  S   UNL d   1      37.574  -9.289  -2.949  0.00  0.00    -0.136 SA
ATOM      2  O   UNL d   1      41.689  -8.846  -2.556  0.00  0.00    -0.271 OA
ATOM      3  N   UNL d   1      39.659  -7.699  -2.551  0.00  0.00    -0.293 N 
ATOM      4  C   UNL d   1      38.696  -8.006  -3.597  0.00  0.00     0.187 C 
ATOM      5  CA  UNL d   1      39.948  -8.466  -4.447  0.00  0.00     0.211 C 
ATOM      6  C   UNL d   1      40.643  -8.484  -3.063  0.00  0.00     0.251 C 
ATOM      7  CA  UNL d   1      39.340  -7.412  -1.238  0.00  0.00     0.117 C 
ATOM      8  C   UNL d   1      38.079  -7.626  -0.763  0.00  0.00    -0.013 C 
ATOM      9  C   UNL d   1      36.963  -8.223  -1.596  0.00  0.00     0.115 C 
ENDROOT
BRANCH   5  10
ATOM     10  N   UNL d   1      39.789  -9.662  -5.360  0.00  0.00    -0.339 N 
ATOM     11  C   UNL d   1      39.814  -9.413  -6.728  0.00  0.00     0.275 C 
ATOM     12  O   UNL d   1      39.678 -10.335  -7.528  0.00  0.00    -0.266 OA
ATOM     13  H   UNL d   1      39.848 -10.615  -5.028  0.00  0.00     0.163 HD
BRANCH  11  14
ATOM     14  C   UNL d   1      40.068  -7.990  -7.292  0.00  0.00     0.180 C 
ATOM     15  N   UNL d   1      41.163  -7.283  -7.323  0.00  0.00    -0.126 NA
BRANCH  15  16
ATOM     16  O   UNL d   1      42.311  -7.818  -6.745  0.00  0.00    -0.261 OA
ATOM     17  C   UNL d   1      43.237  -8.088  -7.821  0.00  0.00     0.240 C 
ENDBRANCH  15  16
BRANCH  14  18
ATOM     18  C   UNL d   1      38.888  -7.254  -7.762  0.00  0.00     0.102 A 
ATOM     19  N   UNL d   1      37.957  -6.729  -6.877  0.00  0.00    -0.222 NA
ATOM     20  C   UNL d   1      37.102  -5.969  -7.513  0.00  0.00     0.164 A 
ATOM     21  S   UNL d   1      37.275  -5.923  -9.218  0.00  0.00    -0.062 SA
ATOM     22  C   UNL d   1      38.643  -6.947  -9.092  0.00  0.00     0.087 A 
BRANCH  20  23
ATOM     23  N   UNL d   1      36.152  -5.268  -6.884  0.00  0.00    -0.378 N 
ATOM     24  H   UNL d   1      35.503  -4.714  -7.425  0.00  0.00     0.158 HD
ATOM     25  H   UNL d   1      35.779  -5.680  -6.036  0.00  0.00     0.158 HD
ENDBRANCH  20  23
ENDBRANCH  14  18
ENDBRANCH  11  14
ENDBRANCH   5  10
BRANCH   7  26
ATOM     26  C   UNL d   1      40.381  -6.708  -0.397  0.00  0.00     0.194 C 
ATOM     27  OXT UNL d   1      40.415  -5.494  -0.225  0.00  0.00    -0.645 OA
BRANCH  26  28
ATOM     28  O   UNL d   1      41.392  -7.488   0.039  0.00  0.00    -0.772 OA
ATOM     29  H   UNL d   1      42.260  -7.331  -0.391  0.00  0.00     0.167 HD
ENDBRANCH  26  28
ENDBRANCH   7  26
BRANCH   8  30
ATOM     30  C   UNL d   1      37.669  -7.372   0.682  0.00  0.00     0.216 C 
BRANCH  30  31
ATOM     31  O   UNL d   1      37.998  -8.508   1.498  0.00  0.00    -0.317 OA
BRANCH  31  32
ATOM     32  C   UNL d   1      38.179  -8.271   2.823  0.00  0.00     0.255 C 
ATOM     33  O   UNL d   1      39.192  -7.818   3.333  0.00  0.00    -0.266 OA
ATOM     34  C   UNL d   1      36.937  -8.636   3.578  0.00  0.00     0.126 C 
ENDBRANCH  31  32
ENDBRANCH  30  31
ENDBRANCH   8  30
TORSDOF 10
ENDMDL
MODEL 3
REMARK VINA RESULT:      -7.1      2.748      8.343
REMARK  10 active torsions:
REMARK  status: ('A' for Active; 'I' for Inactive)
REMARK    1  A    between atoms: O_4  and  C_21 
REMARK    2  A    between atoms: O_4  and  C_26 
REMARK    3  A    between atoms: O_5  and  C_22 
REMARK    4  A    between atoms: O_8  and  N_12 
REMARK    5  A    between atoms: CA_16  and  N_11 
REMARK       I    between atoms: N_11  and  C_23 
REMARK    6  A    between atoms: N_14  and  C_29 
REMARK    7  A    between atoms: CA_18  and  C_22 
REMARK    8  A    between atoms: C_19  and  C_21 
REMARK    9  A    between atoms: C_23  and  C_24 
REMARK   10  A    between atoms: C_24  and  C_25 
ROOT
ATOM      1  S   UNL d   1      36.100  -6.261  -5.350  0.00  0.00    -0.136 SA
ATOM      2  O   UNL d   1      40.240  -6.527  -5.611  0.00  0.00    -0.271 OA
ATOM      3  N   UNL d   1      38.251  -7.697  -5.939  0.00  0.00    -0.293 N 
ATOM      4  C   UNL d   1      37.232  -7.619  -4.903  0.00  0.00     0.187 C 
ATOM      5  CA  UNL d   1      38.429  -7.303  -3.918  0.00  0.00     0.211 C 
ATOM      6  C   UNL d   1      39.184  -7.003  -5.236  0.00  0.00     0.251 C 
ATOM      7  CA  UNL d   1      38.001  -7.733  -7.297  0.00  0.00     0.117 C 
ATOM      8  C   UNL d   1      36.757  -7.460  -7.786  0.00  0.00    -0.013 C 
ATOM      9  C   UNL d   1      35.586  -7.061  -6.911  0.00  0.00     0.115 C 
ENDROOT
BRANCH   5  10
ATOM     10  N   UNL d   1      38.190  -6.310  -2.803  0.00  0.00    -0.339 N 
ATOM     11  C   UNL d   1      38.762  -6.603  -1.569  0.00  0.00     0.275 C 
ATOM     12  O   UNL d   1      38.599  -5.847  -0.615  0.00  0.00    -0.266 OA
ATOM     13  H   UNL d   1      37.802  -5.390  -2.963  0.00  0.00     0.163 HD
BRANCH  11  14
ATOM     14  C   UNL d   1      39.664  -7.850  -1.367  0.00  0.00     0.180 C 
ATOM     15  N   UNL d   1      39.354  -9.055  -0.977  0.00  0.00    -0.126 NA
BRANCH  15  16
ATOM     16  O   UNL d   1      38.030  -9.321  -0.642  0.00  0.00    -0.261 OA
ATOM     17  C   UNL d   1      37.442 -10.012  -1.766  0.00  0.00     0.240 C 
ENDBRANCH  15  16
BRANCH  14  18
ATOM     18  C   UNL d   1      41.109  -7.640  -1.513  0.00  0.00     0.102 A 
ATOM     19  N   UNL d   1      41.817  -6.813  -0.652  0.00  0.00    -0.222 NA
ATOM     20  C   UNL d   1      43.103  -6.925  -0.866  0.00  0.00     0.164 A 
ATOM     21  S   UNL d   1      43.551  -7.928  -2.184  0.00  0.00    -0.062 SA
ATOM     22  C   UNL d   1      41.899  -8.295  -2.447  0.00  0.00     0.087 A 
BRANCH  20  23
ATOM     23  N   UNL d   1      44.018  -6.305  -0.113  0.00  0.00    -0.378 N 
ATOM     24  H   UNL d   1      43.764  -5.979   0.809  0.00  0.00     0.158 HD
ATOM     25  H   UNL d   1      44.974  -6.622  -0.219  0.00  0.00     0.158 HD
ENDBRANCH  20  23
ENDBRANCH  14  18
ENDBRANCH  11  14
ENDBRANCH   5  10
BRANCH   7  26
ATOM     26  C   UNL d   1      39.101  -8.238  -8.203  0.00  0.00     0.194 C 
ATOM     27  OXT UNL d   1      39.307  -9.425  -8.434  0.00  0.00    -0.645 OA
BRANCH  26  28
ATOM     28  O   UNL d   1      39.970  -7.299  -8.632  0.00  0.00    -0.772 OA
ATOM     29  H   UNL d   1      39.597  -6.629  -9.244  0.00  0.00     0.167 HD
ENDBRANCH  26  28
ENDBRANCH   7  26
BRANCH   8  30
ATOM     30  C   UNL d   1      36.421  -7.441  -9.271  0.00  0.00     0.216 C 
BRANCH  30  31
ATOM     31  O   UNL d   1      36.427  -6.090  -9.763  0.00  0.00    -0.317 OA
BRANCH  31  32
ATOM     32  C   UNL d   1      37.455  -5.747 -10.580  0.00  0.00     0.255 C 
ATOM     33  O   UNL d   1      38.524  -5.276 -10.222  0.00  0.00    -0.266 OA
ATOM     34  C   UNL d   1      37.093  -6.044 -12.004  0.00  0.00     0.126 C 
ENDBRANCH  31  32
ENDBRANCH  30  31
ENDBRANCH   8  30
TORSDOF 10
ENDMDL
MODEL 4
REMARK VINA RESULT:      -7.0      3.619      6.335
REMARK  10 active torsions:
REMARK  status: ('A' for Active; 'I' for Inactive)
REMARK    1  A    between atoms: O_4  and  C_21 
REMARK    2  A    between atoms: O_4  and  C_26 
REMARK    3  A    between atoms: O_5  and  C_22 
REMARK    4  A    between atoms: O_8  and  N_12 
REMARK    5  A    between atoms: CA_16  and  N_11 
REMARK       I    between atoms: N_11  and  C_23 
REMARK    6  A    between atoms: N_14  and  C_29 
REMARK    7  A    between atoms: CA_18  and  C_22 
REMARK    8  A    between atoms: C_19  and  C_21 
REMARK    9  A    between atoms: C_23  and  C_24 
REMARK   10  A    between atoms: C_24  and  C_25 
ROOT
ATOM      1  S   UNL d   1      38.934  -9.858  -5.119  0.00  0.00    -0.136 SA
ATOM      2  O   UNL d   1      38.930  -9.393  -0.988  0.00  0.00    -0.271 OA
ATOM      3  N   UNL d   1      39.073  -8.250  -3.015  0.00  0.00    -0.293 N 
ATOM      4  C   UNL d   1      39.947  -8.789  -4.045  0.00  0.00     0.187 C 
ATOM      5  CA  UNL d   1      40.739  -9.461  -2.852  0.00  0.00     0.211 C 
ATOM      6  C   UNL d   1      39.441  -9.151  -2.066  0.00  0.00     0.251 C 
ATOM      7  CA  UNL d   1      37.852  -7.647  -3.246  0.00  0.00     0.117 C 
ATOM      8  C   UNL d   1      37.257  -7.720  -4.472  0.00  0.00    -0.013 C 
ATOM      9  C   UNL d   1      37.845  -8.485  -5.640  0.00  0.00     0.115 C 
ENDROOT
BRANCH   5  10
ATOM     10  N   UNL d   1      41.319 -10.841  -3.069  0.00  0.00    -0.339 N 
ATOM     11  C   UNL d   1      42.606 -10.903  -3.595  0.00  0.00     0.275 C 
ATOM     12  O   UNL d   1      43.135 -11.990  -3.810  0.00  0.00    -0.266 OA
ATOM     13  H   UNL d   1      40.896 -11.678  -2.692  0.00  0.00     0.163 HD
BRANCH  11  14
ATOM     14  C   UNL d   1      43.435  -9.621  -3.872  0.00  0.00     0.180 C 
ATOM     15  N   UNL d   1      43.661  -8.995  -4.993  0.00  0.00    -0.126 NA
BRANCH  15  16
ATOM     16  O   UNL d   1      43.134  -9.528  -6.167  0.00  0.00    -0.261 OA
ATOM     17  C   UNL d   1      43.327  -8.538  -7.201  0.00  0.00     0.240 C 
ENDBRANCH  15  16
BRANCH  14  18
ATOM     18  C   UNL d   1      44.189  -9.074  -2.739  0.00  0.00     0.102 A 
ATOM     19  N   UNL d   1      43.956  -7.793  -2.257  0.00  0.00    -0.222 NA
ATOM     20  C   UNL d   1      44.613  -7.598  -1.143  0.00  0.00     0.164 A 
ATOM     21  S   UNL d   1      45.644  -8.878  -0.655  0.00  0.00    -0.062 SA
ATOM     22  C   UNL d   1      45.120  -9.794  -2.005  0.00  0.00     0.087 A 
BRANCH  20  23
ATOM     23  N   UNL d   1      44.494  -6.478  -0.421  0.00  0.00    -0.378 N 
ATOM     24  H   UNL d   1      44.232  -6.539   0.553  0.00  0.00     0.158 HD
ATOM     25  H   UNL d   1      45.128  -5.723  -0.660  0.00  0.00     0.158 HD
ENDBRANCH  20  23
ENDBRANCH  14  18
ENDBRANCH  11  14
ENDBRANCH   5  10
BRANCH   7  26
ATOM     26  C   UNL d   1      37.279  -6.774  -2.152  0.00  0.00     0.194 C 
ATOM     27  OXT UNL d   1      37.554  -5.588  -2.008  0.00  0.00    -0.645 OA
BRANCH  26  28
ATOM     28  O   UNL d   1      36.549  -7.423  -1.221  0.00  0.00    -0.772 OA
ATOM     29  H   UNL d   1      37.032  -7.667  -0.402  0.00  0.00     0.167 HD
ENDBRANCH  26  28
ENDBRANCH   7  26
BRANCH   8  30
ATOM     30  C   UNL d   1      35.895  -7.114  -4.785  0.00  0.00     0.216 C 
BRANCH  30  31
ATOM     31  O   UNL d   1      34.899  -8.148  -4.855  0.00  0.00    -0.317 OA
BRANCH  31  32
ATOM     32  C   UNL d   1      33.961  -8.153  -3.872  0.00  0.00     0.255 C 
ATOM     33  O   UNL d   1      34.174  -8.353  -2.685  0.00  0.00    -0.266 OA
ATOM     34  C   UNL d   1      32.612  -7.862  -4.456  0.00  0.00     0.126 C 
ENDBRANCH  31  32
ENDBRANCH  30  31
ENDBRANCH   8  30
TORSDOF 10
ENDMDL
MODEL 5
REMARK VINA RESULT:      -6.8      3.903      7.893
REMARK  10 active torsions:
REMARK  status: ('A' for Active; 'I' for Inactive)
REMARK    1  A    between atoms: O_4  and  C_21 
REMARK    2  A    between atoms: O_4  and  C_26 
REMARK    3  A    between atoms: O_5  and  C_22 
REMARK    4  A    between atoms: O_8  and  N_12 
REMARK    5  A    between atoms: CA_16  and  N_11 
REMARK       I    between atoms: N_11  and  C_23 
REMARK    6  A    between atoms: N_14  and  C_29 
REMARK    7  A    between atoms: CA_18  and  C_22 
REMARK    8  A    between atoms: C_19  and  C_21 
REMARK    9  A    between atoms: C_23  and  C_24 
REMARK   10  A    between atoms: C_24  and  C_25 
ROOT
ATOM      1  S   UNL d   1      39.122  -6.665  -1.343  0.00  0.00    -0.136 SA
ATOM      2  O   UNL d   1      41.901  -7.699  -4.256  0.00  0.00    -0.271 OA
ATOM      3  N   UNL d   1      40.261  -8.542  -2.830  0.00  0.00    -0.293 N 
ATOM      4  C   UNL d   1      40.256  -8.089  -1.448  0.00  0.00     0.187 C 
ATOM      5  CA  UNL d   1      41.797  -7.805  -1.662  0.00  0.00     0.211 C 
ATOM      6  C   UNL d   1      41.413  -7.901  -3.159  0.00  0.00     0.251 C 
ATOM      7  CA  UNL d   1      39.133  -8.793  -3.587  0.00  0.00     0.117 C 
ATOM      8  C   UNL d   1      37.899  -8.405  -3.153  0.00  0.00    -0.013 C 
ATOM      9  C   UNL d   1      37.670  -7.646  -1.862  0.00  0.00     0.115 C 
ENDROOT
BRANCH   5  10
ATOM     10  N   UNL d   1      42.398  -6.589  -0.992  0.00  0.00    -0.339 N 
ATOM     11  C   UNL d   1      43.696  -6.718  -0.507  0.00  0.00     0.275 C 
ATOM     12  O   UNL d   1      44.242  -5.776   0.060  0.00  0.00    -0.266 OA
ATOM     13  H   UNL d   1      41.977  -5.672  -1.044  0.00  0.00     0.163 HD
BRANCH  11  14
ATOM     14  C   UNL d   1      44.515  -8.020  -0.713  0.00  0.00     0.180 C 
ATOM     15  N   UNL d   1      44.840  -8.950   0.141  0.00  0.00    -0.126 NA
BRANCH  15  16
ATOM     16  O   UNL d   1      44.452  -8.793   1.469  0.00  0.00    -0.261 OA
ATOM     17  C   UNL d   1      45.594  -9.140   2.284  0.00  0.00     0.240 C 
ENDBRANCH  15  16
BRANCH  14  18
ATOM     18  C   UNL d   1      45.133  -8.200  -2.032  0.00  0.00     0.102 A 
ATOM     19  N   UNL d   1      46.028  -7.275  -2.551  0.00  0.00    -0.222 NA
ATOM     20  C   UNL d   1      46.577  -7.736  -3.645  0.00  0.00     0.164 A 
ATOM     21  S   UNL d   1      45.981  -9.246  -4.196  0.00  0.00    -0.062 SA
ATOM     22  C   UNL d   1      44.954  -9.323  -2.827  0.00  0.00     0.087 A 
BRANCH  20  23
ATOM     23  N   UNL d   1      47.543  -7.081  -4.299  0.00  0.00    -0.378 N 
ATOM     24  H   UNL d   1      47.855  -7.423  -5.198  0.00  0.00     0.158 HD
ATOM     25  H   UNL d   1      47.560  -6.074  -4.181  0.00  0.00     0.158 HD
ENDBRANCH  20  23
ENDBRANCH  14  18
ENDBRANCH  11  14
ENDBRANCH   5  10
BRANCH   7  26
ATOM     26  C   UNL d   1      39.290  -9.649  -4.824  0.00  0.00     0.194 C 
ATOM     27  OXT UNL d   1      39.371 -10.872  -4.804  0.00  0.00    -0.645 OA
BRANCH  26  28
ATOM     28  O   UNL d   1      39.501  -8.969  -5.970  0.00  0.00    -0.772 OA
ATOM     29  H   UNL d   1      38.884  -8.224  -6.138  0.00  0.00     0.167 HD
ENDBRANCH  26  28
ENDBRANCH   7  26
BRANCH   8  30
ATOM     30  C   UNL d   1      36.620  -8.613  -3.953  0.00  0.00     0.216 C 
BRANCH  30  31
ATOM     31  O   UNL d   1      36.666  -7.846  -5.168  0.00  0.00    -0.317 OA
BRANCH  31  32
ATOM     32  C   UNL d   1      35.724  -6.878  -5.309  0.00  0.00     0.255 C 
ATOM     33  O   UNL d   1      34.901  -6.556  -4.465  0.00  0.00    -0.266 OA
ATOM     34  C   UNL d   1      35.847  -6.244  -6.662  0.00  0.00     0.126 C 
ENDBRANCH  31  32
ENDBRANCH  30  31
ENDBRANCH   8  30
TORSDOF 10
ENDMDL
MODEL 6
REMARK VINA RESULT:      -6.8      2.868      4.369
REMARK  10 active torsions:
REMARK  status: ('A' for Active; 'I' for Inactive)
REMARK    1  A    between atoms: O_4  and  C_21 
REMARK    2  A    between atoms: O_4  and  C_26 
REMARK    3  A    between atoms: O_5  and  C_22 
REMARK    4  A    between atoms: O_8  and  N_12 
REMARK    5  A    between atoms: CA_16  and  N_11 
REMARK       I    between atoms: N_11  and  C_23 
REMARK    6  A    between atoms: N_14  and  C_29 
REMARK    7  A    between atoms: CA_18  and  C_22 
REMARK    8  A    between atoms: C_19  and  C_21 
REMARK    9  A    between atoms: C_23  and  C_24 
REMARK   10  A    between atoms: C_24  and  C_25 
ROOT
ATOM      1  S   UNL d   1      37.989  -8.533  -3.810  0.00  0.00    -0.136 SA
ATOM      2  O   UNL d   1      41.826  -9.504  -2.540  0.00  0.00    -0.271 OA
ATOM      3  N   UNL d   1      40.386  -7.731  -3.005  0.00  0.00    -0.293 N 
ATOM      4  C   UNL d   1      39.601  -7.789  -4.229  0.00  0.00     0.187 C 
ATOM      5  CA  UNL d   1      40.744  -8.738  -4.774  0.00  0.00     0.211 C 
ATOM      6  C   UNL d   1      41.101  -8.856  -3.272  0.00  0.00     0.251 C 
ATOM      7  CA  UNL d   1      39.942  -7.221  -1.801  0.00  0.00     0.117 C 
ATOM      8  C   UNL d   1      38.622  -6.936  -1.607  0.00  0.00    -0.013 C 
ATOM      9  C   UNL d   1      37.552  -7.190  -2.649  0.00  0.00     0.115 C 
ENDROOT
BRANCH   5  10
ATOM     10  N   UNL d   1      40.347  -9.890  -5.670  0.00  0.00    -0.339 N 
ATOM     11  C   UNL d   1      40.352  -9.649  -7.040  0.00  0.00     0.275 C 
ATOM     12  O   UNL d   1      40.029 -10.535  -7.826  0.00  0.00    -0.266 OA
ATOM     13  H   UNL d   1      40.259 -10.839  -5.334  0.00  0.00     0.163 HD
BRANCH  11  14
ATOM     14  C   UNL d   1      40.817  -8.289  -7.625  0.00  0.00     0.180 C 
ATOM     15  N   UNL d   1      40.138  -7.202  -7.863  0.00  0.00    -0.126 NA
BRANCH  15  16
ATOM     16  O   UNL d   1      38.769  -7.209  -7.607  0.00  0.00    -0.261 OA
ATOM     17  C   UNL d   1      38.135  -6.500  -8.696  0.00  0.00     0.240 C 
ENDBRANCH  15  16
BRANCH  14  18
ATOM     18  C   UNL d   1      42.203  -8.224  -8.103  0.00  0.00     0.102 A 
ATOM     19  N   UNL d   1      43.045  -7.176  -7.760  0.00  0.00    -0.222 NA
ATOM     20  C   UNL d   1      44.268  -7.426  -8.150  0.00  0.00     0.164 A 
ATOM     21  S   UNL d   1      44.478  -8.868  -9.055  0.00  0.00    -0.062 SA
ATOM     22  C   UNL d   1      42.814  -9.219  -8.852  0.00  0.00     0.087 A 
BRANCH  20  23
ATOM     23  N   UNL d   1      45.297  -6.619  -7.866  0.00  0.00    -0.378 N 
ATOM     24  H   UNL d   1      45.332  -6.155  -6.969  0.00  0.00     0.158 HD
ATOM     25  H   UNL d   1      46.193  -6.881  -8.260  0.00  0.00     0.158 HD
ENDBRANCH  20  23
ENDBRANCH  14  18
ENDBRANCH  11  14
ENDBRANCH   5  10
BRANCH   7  26
ATOM     26  C   UNL d   1      40.981  -6.840  -0.771  0.00  0.00     0.194 C 
ATOM     27  OXT UNL d   1      41.596  -5.779  -0.779  0.00  0.00    -0.645 OA
BRANCH  26  28
ATOM     28  O   UNL d   1      41.321  -7.819   0.093  0.00  0.00    -0.772 OA
ATOM     29  H   UNL d   1      41.929  -8.502  -0.263  0.00  0.00     0.167 HD
ENDBRANCH  26  28
ENDBRANCH   7  26
BRANCH   8  30
ATOM     30  C   UNL d   1      38.057  -6.411  -0.293  0.00  0.00     0.216 C 
BRANCH  30  31
ATOM     31  O   UNL d   1      37.679  -7.507   0.556  0.00  0.00    -0.317 OA
BRANCH  31  32
ATOM     32  C   UNL d   1      38.257  -7.549   1.785  0.00  0.00     0.255 C 
ATOM     33  O   UNL d   1      39.260  -6.939   2.121  0.00  0.00    -0.266 OA
ATOM     34  C   UNL d   1      37.470  -8.453   2.685  0.00  0.00     0.126 C 
ENDBRANCH  31  32
ENDBRANCH  30  31
ENDBRANCH   8  30
TORSDOF 10
ENDMDL
MODEL 7
REMARK VINA RESULT:      -6.7      3.355      8.434
REMARK  10 active torsions:
REMARK  status: ('A' for Active; 'I' for Inactive)
REMARK    1  A    between atoms: O_4  and  C_21 
REMARK    2  A    between atoms: O_4  and  C_26 
REMARK    3  A    between atoms: O_5  and  C_22 
REMARK    4  A    between atoms: O_8  and  N_12 
REMARK    5  A    between atoms: CA_16  and  N_11 
REMARK       I    between atoms: N_11  and  C_23 
REMARK    6  A    between atoms: N_14  and  C_29 
REMARK    7  A    between atoms: CA_18  and  C_22 
REMARK    8  A    between atoms: C_19  and  C_21 
REMARK    9  A    between atoms: C_23  and  C_24 
REMARK   10  A    between atoms: C_24  and  C_25 
ROOT
ATOM      1  S   UNL d   1      38.218  -6.984  -8.779  0.00  0.00    -0.136 SA
ATOM      2  O   UNL d   1      40.613  -6.428  -5.427  0.00  0.00    -0.271 OA
ATOM      3  N   UNL d   1      39.966  -7.974  -7.048  0.00  0.00    -0.293 N 
ATOM      4  C   UNL d   1      38.551  -8.084  -7.363  0.00  0.00     0.187 C 
ATOM      5  CA  UNL d   1      38.306  -7.522  -5.904  0.00  0.00     0.211 C 
ATOM      6  C   UNL d   1      39.790  -7.098  -6.023  0.00  0.00     0.251 C 
ATOM      7  CA  UNL d   1      40.994  -8.079  -7.965  0.00  0.00     0.117 C 
ATOM      8  C   UNL d   1      40.739  -8.065  -9.305  0.00  0.00    -0.013 C 
ATOM      9  C   UNL d   1      39.351  -7.893  -9.888  0.00  0.00     0.115 C 
ENDROOT
BRANCH   5  10
ATOM     10  N   UNL d   1      37.143  -6.579  -5.690  0.00  0.00    -0.339 N 
ATOM     11  C   UNL d   1      36.471  -6.679  -4.477  0.00  0.00     0.275 C 
ATOM     12  O   UNL d   1      35.509  -5.953  -4.239  0.00  0.00    -0.266 OA
ATOM     13  H   UNL d   1      36.961  -5.789  -6.294  0.00  0.00     0.163 HD
BRANCH  11  14
ATOM     14  C   UNL d   1      36.937  -7.658  -3.366  0.00  0.00     0.180 C 
ATOM     15  N   UNL d   1      36.757  -8.944  -3.251  0.00  0.00    -0.126 NA
BRANCH  15  16
ATOM     16  O   UNL d   1      36.007  -9.596  -4.226  0.00  0.00    -0.261 OA
ATOM     17  C   UNL d   1      34.629  -9.547  -3.797  0.00  0.00     0.240 C 
ENDBRANCH  15  16
BRANCH  14  18
ATOM     18  C   UNL d   1      37.580  -7.054  -2.193  0.00  0.00     0.102 A 
ATOM     19  N   UNL d   1      36.861  -6.743  -1.047  0.00  0.00    -0.222 NA
ATOM     20  C   UNL d   1      37.671  -6.388  -0.082  0.00  0.00     0.164 A 
ATOM     21  S   UNL d   1      39.329  -6.284  -0.506  0.00  0.00    -0.062 SA
ATOM     22  C   UNL d   1      38.943  -6.821  -2.087  0.00  0.00     0.087 A 
BRANCH  20  23
ATOM     23  N   UNL d   1      37.245  -6.124   1.158  0.00  0.00    -0.378 N 
ATOM     24  H   UNL d   1      37.886  -5.725   1.829  0.00  0.00     0.158 HD
ATOM     25  H   UNL d   1      36.278  -5.832   1.246  0.00  0.00     0.158 HD
ENDBRANCH  20  23
ENDBRANCH  14  18
ENDBRANCH  11  14
ENDBRANCH   5  10
BRANCH   7  26
ATOM     26  C   UNL d   1      42.382  -8.370  -7.438  0.00  0.00     0.194 C 
ATOM     27  OXT UNL d   1      42.785  -9.493  -7.157  0.00  0.00    -0.645 OA
BRANCH  26  28
ATOM     28  O   UNL d   1      43.122  -7.283  -7.137  0.00  0.00    -0.772 OA
ATOM     29  H   UNL d   1      42.632  -6.432  -7.113  0.00  0.00     0.167 HD
ENDBRANCH  26  28
ENDBRANCH   7  26
BRANCH   8  30
ATOM     30  C   UNL d   1      41.825  -8.135 -10.370  0.00  0.00     0.216 C 
BRANCH  30  31
ATOM     31  O   UNL d   1      41.282  -7.787 -11.655  0.00  0.00    -0.317 OA
BRANCH  31  32
ATOM     32  C   UNL d   1      41.616  -8.597 -12.693  0.00  0.00     0.255 C 
ATOM     33  O   UNL d   1      41.893  -8.227 -13.824  0.00  0.00    -0.266 OA
ATOM     34  C   UNL d   1      41.611 -10.027 -12.244  0.00  0.00     0.126 C 
ENDBRANCH  31  32
ENDBRANCH  30  31
ENDBRANCH   8  30
TORSDOF 10
ENDMDL
MODEL 8
REMARK VINA RESULT:      -6.6      3.092      8.115
REMARK  10 active torsions:
REMARK  status: ('A' for Active; 'I' for Inactive)
REMARK    1  A    between atoms: O_4  and  C_21 
REMARK    2  A    between atoms: O_4  and  C_26 
REMARK    3  A    between atoms: O_5  and  C_22 
REMARK    4  A    between atoms: O_8  and  N_12 
REMARK    5  A    between atoms: CA_16  and  N_11 
REMARK       I    between atoms: N_11  and  C_23 
REMARK    6  A    between atoms: N_14  and  C_29 
REMARK    7  A    between atoms: CA_18  and  C_22 
REMARK    8  A    between atoms: C_19  and  C_21 
REMARK    9  A    between atoms: C_23  and  C_24 
REMARK   10  A    between atoms: C_24  and  C_25 
ROOT
ATOM      1  S   UNL d   1      39.928  -9.080  -6.952  0.00  0.00    -0.136 SA
ATOM      2  O   UNL d   1      36.237  -8.759  -5.068  0.00  0.00    -0.271 OA
ATOM      3  N   UNL d   1      37.990  -7.539  -6.002  0.00  0.00    -0.293 N 
ATOM      4  C   UNL d   1      39.350  -7.927  -5.663  0.00  0.00     0.187 C 
ATOM      5  CA  UNL d   1      38.721  -8.532  -4.344  0.00  0.00     0.211 C 
ATOM      6  C   UNL d   1      37.402  -8.417  -5.147  0.00  0.00     0.251 C 
ATOM      7  CA  UNL d   1      37.578  -7.090  -7.242  0.00  0.00     0.117 C 
ATOM      8  C   UNL d   1      38.393  -7.197  -8.330  0.00  0.00    -0.013 C 
ATOM      9  C   UNL d   1      39.764  -7.841  -8.285  0.00  0.00     0.115 C 
ENDROOT
BRANCH   5  10
ATOM     10  N   UNL d   1      39.304  -9.818  -3.801  0.00  0.00    -0.339 N 
ATOM     11  C   UNL d   1      40.262  -9.698  -2.799  0.00  0.00     0.275 C 
ATOM     12  O   UNL d   1      40.787 -10.699  -2.321  0.00  0.00    -0.266 OA
ATOM     13  H   UNL d   1      38.908 -10.726  -4.002  0.00  0.00     0.163 HD
BRANCH  11  14
ATOM     14  C   UNL d   1      40.657  -8.316  -2.213  0.00  0.00     0.180 C 
ATOM     15  N   UNL d   1      41.687  -7.559  -2.471  0.00  0.00    -0.126 NA
BRANCH  15  16
ATOM     16  O   UNL d   1      42.636  -8.021  -3.379  0.00  0.00    -0.261 OA
ATOM     17  C   UNL d   1      43.739  -8.541  -2.605  0.00  0.00     0.240 C 
ENDBRANCH  15  16
BRANCH  14  18
ATOM     18  C   UNL d   1      39.828  -7.814  -1.111  0.00  0.00     0.102 A 
ATOM     19  N   UNL d   1      39.563  -8.584   0.013  0.00  0.00    -0.222 NA
ATOM     20  C   UNL d   1      38.963  -7.866   0.926  0.00  0.00     0.164 A 
ATOM     21  S   UNL d   1      38.564  -6.263   0.468  0.00  0.00    -0.062 SA
ATOM     22  C   UNL d   1      39.315  -6.527  -1.050  0.00  0.00     0.087 A 
BRANCH  20  23
ATOM     23  N   UNL d   1      38.674  -8.341   2.144  0.00  0.00    -0.378 N 
ATOM     24  H   UNL d   1      38.905  -7.790   2.959  0.00  0.00     0.158 HD
ATOM     25  H   UNL d   1      37.836  -8.905   2.216  0.00  0.00     0.158 HD
ENDBRANCH  20  23
ENDBRANCH  14  18
ENDBRANCH  11  14
ENDBRANCH   5  10
BRANCH   7  26
ATOM     26  C   UNL d   1      36.270  -6.335  -7.318  0.00  0.00     0.194 C 
ATOM     27  OXT UNL d   1      35.228  -6.813  -7.754  0.00  0.00    -0.645 OA
BRANCH  26  28
ATOM     28  O   UNL d   1      36.346  -5.021  -7.021  0.00  0.00    -0.772 OA
ATOM     29  H   UNL d   1      37.223  -4.710  -6.708  0.00  0.00     0.167 HD
ENDBRANCH  26  28
ENDBRANCH   7  26
BRANCH   8  30
ATOM     30  C   UNL d   1      37.988  -6.761  -9.732  0.00  0.00     0.216 C 
BRANCH  30  31
ATOM     31  O   UNL d   1      39.003  -5.917 -10.300  0.00  0.00    -0.317 OA
BRANCH  31  32
ATOM     32  C   UNL d   1      39.139  -5.958 -11.651  0.00  0.00     0.255 C 
ATOM     33  O   UNL d   1      40.167  -6.223 -12.256  0.00  0.00    -0.266 OA
ATOM     34  C   UNL d   1      37.827  -5.641 -12.303  0.00  0.00     0.126 C 
ENDBRANCH  31  32
ENDBRANCH  30  31
ENDBRANCH   8  30
TORSDOF 10
ENDMDL
MODEL 9
REMARK VINA RESULT:      -6.6      3.838      5.928
REMARK  10 active torsions:
REMARK  status: ('A' for Active; 'I' for Inactive)
REMARK    1  A    between atoms: O_4  and  C_21 
REMARK    2  A    between atoms: O_4  and  C_26 
REMARK    3  A    between atoms: O_5  and  C_22 
REMARK    4  A    between atoms: O_8  and  N_12 
REMARK    5  A    between atoms: CA_16  and  N_11 
REMARK       I    between atoms: N_11  and  C_23 
REMARK    6  A    between atoms: N_14  and  C_29 
REMARK    7  A    between atoms: CA_18  and  C_22 
REMARK    8  A    between atoms: C_19  and  C_21 
REMARK    9  A    between atoms: C_23  and  C_24 
REMARK   10  A    between atoms: C_24  and  C_25 
ROOT
ATOM      1  S   UNL d   1      39.441  -7.041  -5.707  0.00  0.00    -0.136 SA
ATOM      2  O   UNL d   1      35.737  -5.927  -7.229  0.00  0.00    -0.271 OA
ATOM      3  N   UNL d   1      36.902  -7.648  -6.173  0.00  0.00    -0.293 N 
ATOM      4  C   UNL d   1      38.223  -7.991  -6.677  0.00  0.00     0.187 C 
ATOM      5  CA  UNL d   1      37.724  -7.385  -8.051  0.00  0.00     0.211 C 
ATOM      6  C   UNL d   1      36.632  -6.749  -7.156  0.00  0.00     0.251 C 
ATOM      7  CA  UNL d   1      36.535  -7.651  -4.842  0.00  0.00     0.117 C 
ATOM      8  C   UNL d   1      37.474  -7.758  -3.858  0.00  0.00    -0.013 C 
ATOM      9  C   UNL d   1      38.963  -7.833  -4.131  0.00  0.00     0.115 C 
ENDROOT
BRANCH   5  10
ATOM     10  N   UNL d   1      38.718  -6.618  -8.894  0.00  0.00    -0.339 N 
ATOM     11  C   UNL d   1      38.940  -7.088 -10.184  0.00  0.00     0.275 C 
ATOM     12  O   UNL d   1      39.743  -6.522 -10.921  0.00  0.00    -0.266 OA
ATOM     13  H   UNL d   1      39.073  -5.709  -8.629  0.00  0.00     0.163 HD
BRANCH  11  14
ATOM     14  C   UNL d   1      38.150  -8.295 -10.757  0.00  0.00     0.180 C 
ATOM     15  N   UNL d   1      38.312  -9.573 -10.561  0.00  0.00    -0.126 NA
BRANCH  15  16
ATOM     16  O   UNL d   1      39.364  -9.989  -9.748  0.00  0.00    -0.261 OA
ATOM     17  C   UNL d   1      39.217 -11.415  -9.567  0.00  0.00     0.240 C 
ENDBRANCH  15  16
BRANCH  14  18
ATOM     18  C   UNL d   1      37.134  -7.987 -11.771  0.00  0.00     0.102 A 
ATOM     19  N   UNL d   1      36.103  -7.092 -11.523  0.00  0.00    -0.222 NA
ATOM     20  C   UNL d   1      35.438  -6.846 -12.622  0.00  0.00     0.164 A 
ATOM     21  S   UNL d   1      35.916  -7.752 -13.998  0.00  0.00    -0.062 SA
ATOM     22  C   UNL d   1      37.155  -8.482 -13.067  0.00  0.00     0.087 A 
BRANCH  20  23
ATOM     23  N   UNL d   1      34.449  -5.947 -12.682  0.00  0.00    -0.378 N 
ATOM     24  H   UNL d   1      33.791  -5.982 -13.449  0.00  0.00     0.158 HD
ATOM     25  H   UNL d   1      34.073  -5.636 -11.794  0.00  0.00     0.158 HD
ENDBRANCH  20  23
ENDBRANCH  14  18
ENDBRANCH  11  14
ENDBRANCH   5  10
BRANCH   7  26
ATOM     26  C   UNL d   1      35.058  -7.696  -4.518  0.00  0.00     0.194 C 
ATOM     27  OXT UNL d   1      34.405  -8.732  -4.442  0.00  0.00    -0.645 OA
BRANCH  26  28
ATOM     28  O   UNL d   1      34.443  -6.497  -4.470  0.00  0.00    -0.772 OA
ATOM     29  H   UNL d   1      33.470  -6.516  -4.599  0.00  0.00     0.167 HD
ENDBRANCH  26  28
ENDBRANCH   7  26
BRANCH   8  30
ATOM     30  C   UNL d   1      37.144  -7.727  -2.372  0.00  0.00     0.216 C 
BRANCH  30  31
ATOM     31  O   UNL d   1      37.236  -6.382  -1.872  0.00  0.00    -0.317 OA
BRANCH  31  32
ATOM     32  C   UNL d   1      37.721  -6.235  -0.612  0.00  0.00     0.255 C 
ATOM     33  O   UNL d   1      37.048  -6.116   0.401  0.00  0.00    -0.266 OA
ATOM     34  C   UNL d   1      39.219  -6.254  -0.640  0.00  0.00     0.126 C 
ENDBRANCH  31  32
ENDBRANCH  30  31
ENDBRANCH   8  30
TORSDOF 10
ENDMDL
