MODEL 1
REMARK VINA RESULT:      -7.1      0.000      0.000
REMARK  10 active torsions:
REMARK  status: ('A' for Active; 'I' for Inactive)
REMARK    1  A    between atoms: O_4  and  C_21 
REMARK    2  A    between atoms: O_4  and  C_26 
REMARK    3  A    between atoms: O_5  and  C_22 
REMARK    4  A    between atoms: O_8  and  N_12 
REMARK    5  A    between atoms: CA_16  and  N_11 
REMARK       I    between atoms: N_11  and  C_23 
REMARK    6  A    between atoms: N_14  and  C_29 
REMARK    7  A    between atoms: CA_18  and  C_22 
REMARK    8  A    between atoms: C_19  and  C_21 
REMARK    9  A    between atoms: C_23  and  C_24 
REMARK   10  A    between atoms: C_24  and  C_25 
ROOT
ATOM      1  S   UNL d   1      39.137  -6.506  -0.653  0.00  0.00    -0.136 SA
ATOM      2  O   UNL d   1      41.367  -7.237  -4.084  0.00  0.00    -0.271 OA
ATOM      3  N   UNL d   1      40.001  -8.228  -2.476  0.00  0.00    -0.293 N 
ATOM      4  C   UNL d   1      40.237  -7.897  -1.079  0.00  0.00     0.187 C 
ATOM      5  CA  UNL d   1      41.717  -7.570  -1.532  0.00  0.00     0.211 C 
ATOM      6  C   UNL d   1      41.078  -7.542  -2.942  0.00  0.00     0.251 C 
ATOM      7  CA  UNL d   1      38.759  -8.431  -3.044  0.00  0.00     0.117 C 
ATOM      8  C   UNL d   1      37.619  -8.103  -2.370  0.00  0.00    -0.013 C 
ATOM      9  C   UNL d   1      37.618  -7.462  -0.997  0.00  0.00     0.115 C 
ENDROOT
BRANCH   5  10
ATOM     10  N   UNL d   1      42.424  -6.407  -0.871  0.00  0.00    -0.339 N 
ATOM     11  C   UNL d   1      43.737  -6.622  -0.465  0.00  0.00     0.275 C 
ATOM     12  O   UNL d   1      44.368  -5.726   0.090  0.00  0.00    -0.266 OA
ATOM     13  H   UNL d   1      42.055  -5.466  -0.879  0.00  0.00     0.163 HD
BRANCH  11  14
ATOM     14  C   UNL d   1      44.467  -7.962  -0.745  0.00  0.00     0.180 C 
ATOM     15  N   UNL d   1      44.751  -8.947   0.061  0.00  0.00    -0.126 NA
BRANCH  15  16
ATOM     16  O   UNL d   1      44.404  -8.823   1.404  0.00  0.00    -0.261 OA
ATOM     17  C   UNL d   1      45.622  -8.968   2.167  0.00  0.00     0.240 C 
ENDBRANCH  15  16
BRANCH  14  18
ATOM     18  C   UNL d   1      45.042  -8.124  -2.085  0.00  0.00     0.102 A 
ATOM     19  N   UNL d   1      46.034  -7.278  -2.561  0.00  0.00    -0.222 NA
ATOM     20  C   UNL d   1      46.510  -7.724  -3.694  0.00  0.00     0.164 A 
ATOM     21  S   UNL d   1      45.731  -9.113  -4.331  0.00  0.00    -0.062 SA
ATOM     22  C   UNL d   1      44.720  -9.161  -2.949  0.00  0.00     0.087 A 
BRANCH  20  23
ATOM     23  N   UNL d   1      47.539  -7.145  -4.323  0.00  0.00    -0.378 N 
ATOM     24  H   UNL d   1      47.440  -6.203  -4.675  0.00  0.00     0.158 HD
ATOM     25  H   UNL d   1      48.464  -7.397  -3.994  0.00  0.00     0.158 HD
ENDBRANCH  20  23
ENDBRANCH  14  18
ENDBRANCH  11  14
ENDBRANCH   5  10
BRANCH   7  26
ATOM     26  C   UNL d   1      38.699  -9.174  -4.360  0.00  0.00     0.194 C 
ATOM     27  OXT UNL d   1      38.826 -10.389  -4.468  0.00  0.00    -0.645 OA
BRANCH  26  28
ATOM     28  O   UNL d   1      38.654  -8.392  -5.460  0.00  0.00    -0.772 OA
ATOM     29  H   UNL d   1      37.796  -7.945  -5.624  0.00  0.00     0.167 HD
ENDBRANCH  26  28
ENDBRANCH   7  26
BRANCH   8  30
ATOM     30  C   UNL d   1      36.221  -8.261  -2.951  0.00  0.00     0.216 C 
BRANCH  30  31
ATOM     31  O   UNL d   1      35.960  -7.218  -3.904  0.00  0.00    -0.317 OA
BRANCH  31  32
ATOM     32  C   UNL d   1      34.798  -7.311  -4.602  0.00  0.00     0.255 C 
ATOM     33  O   UNL d   1      33.691  -7.001  -4.188  0.00  0.00    -0.266 OA
ATOM     34  C   UNL d   1      35.073  -7.843  -5.976  0.00  0.00     0.126 C 
ENDBRANCH  31  32
ENDBRANCH  30  31
ENDBRANCH   8  30
TORSDOF 10
ENDMDL
MODEL 2
REMARK VINA RESULT:      -7.1      2.827      4.176
REMARK  10 active torsions:
REMARK  status: ('A' for Active; 'I' for Inactive)
REMARK    1  A    between atoms: O_4  and  C_21 
REMARK    2  A    between atoms: O_4  and  C_26 
REMARK    3  A    between atoms: O_5  and  C_22 
REMARK    4  A    between atoms: O_8  and  N_12 
REMARK    5  A    between atoms: CA_16  and  N_11 
REMARK       I    between atoms: N_11  and  C_23 
REMARK    6  A    between atoms: N_14  and  C_29 
REMARK    7  A    between atoms: CA_18  and  C_22 
REMARK    8  A    between atoms: C_19  and  C_21 
REMARK    9  A    between atoms: C_23  and  C_24 
REMARK   10  A    between atoms: C_24  and  C_25 
ROOT
ATOM      1  S   UNL d   1      38.157 -10.857  -3.778  0.00  0.00    -0.136 SA
ATOM      2  O   UNL d   1      39.910  -8.707  -0.683  0.00  0.00    -0.271 OA
ATOM      3  N   UNL d   1      38.844  -8.513  -2.747  0.00  0.00    -0.293 N 
ATOM      4  C   UNL d   1      39.258  -9.405  -3.818  0.00  0.00     0.187 C 
ATOM      5  CA  UNL d   1      40.639  -9.490  -3.050  0.00  0.00     0.211 C 
ATOM      6  C   UNL d   1      39.804  -8.922  -1.876  0.00  0.00     0.251 C 
ATOM      7  CA  UNL d   1      37.546  -8.101  -2.514  0.00  0.00     0.117 C 
ATOM      8  C   UNL d   1      36.498  -8.699  -3.152  0.00  0.00    -0.013 C 
ATOM      9  C   UNL d   1      36.658  -9.864  -4.107  0.00  0.00     0.115 C 
ENDROOT
BRANCH   5  10
ATOM     10  N   UNL d   1      41.368 -10.815  -3.041  0.00  0.00    -0.339 N 
ATOM     11  C   UNL d   1      42.715 -10.791  -3.388  0.00  0.00     0.275 C 
ATOM     12  O   UNL d   1      43.367 -11.832  -3.414  0.00  0.00    -0.266 OA
ATOM     13  H   UNL d   1      40.976 -11.653  -2.633  0.00  0.00     0.163 HD
BRANCH  11  14
ATOM     14  C   UNL d   1      43.453  -9.460  -3.694  0.00  0.00     0.180 C 
ATOM     15  N   UNL d   1      43.653  -8.856  -4.831  0.00  0.00    -0.126 NA
BRANCH  15  16
ATOM     16  O   UNL d   1      43.190  -9.464  -5.995  0.00  0.00    -0.261 OA
ATOM     17  C   UNL d   1      42.039  -8.708  -6.434  0.00  0.00     0.240 C 
ENDBRANCH  15  16
BRANCH  14  18
ATOM     18  C   UNL d   1      44.143  -8.823  -2.567  0.00  0.00     0.102 A 
ATOM     19  N   UNL d   1      43.707  -7.619  -2.032  0.00  0.00    -0.222 NA
ATOM     20  C   UNL d   1      44.362  -7.344  -0.933  0.00  0.00     0.164 A 
ATOM     21  S   UNL d   1      45.621  -8.435  -0.527  0.00  0.00    -0.062 SA
ATOM     22  C   UNL d   1      45.214  -9.388  -1.891  0.00  0.00     0.087 A 
BRANCH  20  23
ATOM     23  N   UNL d   1      44.077  -6.284  -0.168  0.00  0.00    -0.378 N 
ATOM     24  H   UNL d   1      44.773  -5.933   0.475  0.00  0.00     0.158 HD
ATOM     25  H   UNL d   1      43.466  -5.588  -0.578  0.00  0.00     0.158 HD
ENDBRANCH  20  23
ENDBRANCH  14  18
ENDBRANCH  11  14
ENDBRANCH   5  10
BRANCH   7  26
ATOM     26  C   UNL d   1      37.339  -6.869  -1.661  0.00  0.00     0.194 C 
ATOM     27  OXT UNL d   1      36.972  -6.900  -0.492  0.00  0.00    -0.645 OA
BRANCH  26  28
ATOM     28  O   UNL d   1      37.431  -5.694  -2.317  0.00  0.00    -0.772 OA
ATOM     29  H   UNL d   1      36.747  -5.028  -2.086  0.00  0.00     0.167 HD
ENDBRANCH  26  28
ENDBRANCH   7  26
BRANCH   8  30
ATOM     30  C   UNL d   1      35.042  -8.324  -2.912  0.00  0.00     0.216 C 
BRANCH  30  31
ATOM     31  O   UNL d   1      34.211  -8.880  -3.945  0.00  0.00    -0.317 OA
BRANCH  31  32
ATOM     32  C   UNL d   1      33.186  -8.103  -4.383  0.00  0.00     0.255 C 
ATOM     33  O   UNL d   1      32.897  -6.997  -3.953  0.00  0.00    -0.266 OA
ATOM     34  C   UNL d   1      32.459  -8.801  -5.493  0.00  0.00     0.126 C 
ENDBRANCH  31  32
ENDBRANCH  30  31
ENDBRANCH   8  30
TORSDOF 10
ENDMDL
MODEL 3
REMARK VINA RESULT:      -6.7      3.660      8.195
REMARK  10 active torsions:
REMARK  status: ('A' for Active; 'I' for Inactive)
REMARK    1  A    between atoms: O_4  and  C_21 
REMARK    2  A    between atoms: O_4  and  C_26 
REMARK    3  A    between atoms: O_5  and  C_22 
REMARK    4  A    between atoms: O_8  and  N_12 
REMARK    5  A    between atoms: CA_16  and  N_11 
REMARK       I    between atoms: N_11  and  C_23 
REMARK    6  A    between atoms: N_14  and  C_29 
REMARK    7  A    between atoms: CA_18  and  C_22 
REMARK    8  A    between atoms: C_19  and  C_21 
REMARK    9  A    between atoms: C_23  and  C_24 
REMARK   10  A    between atoms: C_24  and  C_25 
ROOT
ATOM      1  S   UNL d   1      40.370  -7.510  -7.048  0.00  0.00    -0.136 SA
ATOM      2  O   UNL d   1      41.118  -7.410  -2.960  0.00  0.00    -0.271 OA
ATOM      3  N   UNL d   1      41.084  -8.791  -4.838  0.00  0.00    -0.293 N 
ATOM      4  C   UNL d   1      39.942  -8.700  -5.734  0.00  0.00     0.187 C 
ATOM      5  CA  UNL d   1      39.148  -8.169  -4.473  0.00  0.00     0.211 C 
ATOM      6  C   UNL d   1      40.571  -7.941  -3.909  0.00  0.00     0.251 C 
ATOM      7  CA  UNL d   1      42.391  -8.994  -5.236  0.00  0.00     0.117 C 
ATOM      8  C   UNL d   1      42.745  -8.893  -6.550  0.00  0.00    -0.013 C 
ATOM      9  C   UNL d   1      41.773  -8.516  -7.649  0.00  0.00     0.115 C 
ENDROOT
BRANCH   5  10
ATOM     10  N   UNL d   1      38.110  -7.090  -4.687  0.00  0.00    -0.339 N 
ATOM     11  C   UNL d   1      36.965  -7.157  -3.901  0.00  0.00     0.275 C 
ATOM     12  O   UNL d   1      36.075  -6.321  -4.029  0.00  0.00    -0.266 OA
ATOM     13  H   UNL d   1      38.293  -6.255  -5.227  0.00  0.00     0.163 HD
BRANCH  11  14
ATOM     14  C   UNL d   1      36.793  -8.242  -2.804  0.00  0.00     0.180 C 
ATOM     15  N   UNL d   1      36.102  -9.347  -2.818  0.00  0.00    -0.126 NA
BRANCH  15  16
ATOM     16  O   UNL d   1      35.349  -9.641  -3.952  0.00  0.00    -0.261 OA
ATOM     17  C   UNL d   1      33.995  -9.219  -3.677  0.00  0.00     0.240 C 
ENDBRANCH  15  16
BRANCH  14  18
ATOM     18  C   UNL d   1      37.393  -7.948  -1.497  0.00  0.00     0.102 A 
ATOM     19  N   UNL d   1      36.970  -6.876  -0.724  0.00  0.00    -0.222 NA
ATOM     20  C   UNL d   1      37.519  -6.924   0.462  0.00  0.00     0.164 A 
ATOM     21  S   UNL d   1      38.665  -8.177   0.700  0.00  0.00    -0.062 SA
ATOM     22  C   UNL d   1      38.354  -8.742  -0.887  0.00  0.00     0.087 A 
BRANCH  20  23
ATOM     23  N   UNL d   1      37.212  -6.059   1.435  0.00  0.00    -0.378 N 
ATOM     24  H   UNL d   1      36.831  -6.404   2.306  0.00  0.00     0.158 HD
ATOM     25  H   UNL d   1      37.805  -5.240   1.509  0.00  0.00     0.158 HD
ENDBRANCH  20  23
ENDBRANCH  14  18
ENDBRANCH  11  14
ENDBRANCH   5  10
BRANCH   7  26
ATOM     26  C   UNL d   1      43.375  -9.487  -4.199  0.00  0.00     0.194 C 
ATOM     27  OXT UNL d   1      43.517 -10.667  -3.896  0.00  0.00    -0.645 OA
BRANCH  26  28
ATOM     28  O   UNL d   1      43.996  -8.521  -3.490  0.00  0.00    -0.772 OA
ATOM     29  H   UNL d   1      43.890  -7.609  -3.838  0.00  0.00     0.167 HD
ENDBRANCH  26  28
ENDBRANCH   7  26
BRANCH   8  30
ATOM     30  C   UNL d   1      44.173  -9.064  -7.053  0.00  0.00     0.216 C 
BRANCH  30  31
ATOM     31  O   UNL d   1      44.893  -7.827  -6.925  0.00  0.00    -0.317 OA
BRANCH  31  32
ATOM     32  C   UNL d   1      46.115  -7.895  -6.335  0.00  0.00     0.255 C 
ATOM     33  O   UNL d   1      46.340  -7.739  -5.144  0.00  0.00    -0.266 OA
ATOM     34  C   UNL d   1      47.159  -8.207  -7.364  0.00  0.00     0.126 C 
ENDBRANCH  31  32
ENDBRANCH  30  31
ENDBRANCH   8  30
TORSDOF 10
ENDMDL
MODEL 4
REMARK VINA RESULT:      -6.2      2.700      8.508
REMARK  10 active torsions:
REMARK  status: ('A' for Active; 'I' for Inactive)
REMARK    1  A    between atoms: O_4  and  C_21 
REMARK    2  A    between atoms: O_4  and  C_26 
REMARK    3  A    between atoms: O_5  and  C_22 
REMARK    4  A    between atoms: O_8  and  N_12 
REMARK    5  A    between atoms: CA_16  and  N_11 
REMARK       I    between atoms: N_11  and  C_23 
REMARK    6  A    between atoms: N_14  and  C_29 
REMARK    7  A    between atoms: CA_18  and  C_22 
REMARK    8  A    between atoms: C_19  and  C_21 
REMARK    9  A    between atoms: C_23  and  C_24 
REMARK   10  A    between atoms: C_24  and  C_25 
ROOT
ATOM      1  S   UNL d   1      44.819  -9.227  -4.373  0.00  0.00    -0.136 SA
ATOM      2  O   UNL d   1      42.097  -6.827  -2.346  0.00  0.00    -0.271 OA
ATOM      3  N   UNL d   1      43.562  -8.625  -2.117  0.00  0.00    -0.293 N 
ATOM      4  C   UNL d   1      43.545  -9.658  -3.141  0.00  0.00     0.187 C 
ATOM      5  CA  UNL d   1      42.056  -9.196  -3.411  0.00  0.00     0.211 C 
ATOM      6  C   UNL d   1      42.504  -7.940  -2.624  0.00  0.00     0.251 C 
ATOM      7  CA  UNL d   1      44.694  -8.168  -1.470  0.00  0.00     0.117 C 
ATOM      8  C   UNL d   1      45.938  -8.500  -1.920  0.00  0.00    -0.013 C 
ATOM      9  C   UNL d   1      46.181  -9.336  -3.160  0.00  0.00     0.115 C 
ENDROOT
BRANCH   5  10
ATOM     10  N   UNL d   1      41.557  -9.199  -4.839  0.00  0.00    -0.339 N 
ATOM     11  C   UNL d   1      40.324  -9.800  -5.070  0.00  0.00     0.275 C 
ATOM     12  O   UNL d   1      39.862  -9.851  -6.207  0.00  0.00    -0.266 OA
ATOM     13  H   UNL d   1      41.982  -8.643  -5.569  0.00  0.00     0.163 HD
BRANCH  11  14
ATOM     14  C   UNL d   1      39.467 -10.372  -3.909  0.00  0.00     0.180 C 
ATOM     15  N   UNL d   1      39.469 -11.559  -3.371  0.00  0.00    -0.126 NA
BRANCH  15  16
ATOM     16  O   UNL d   1      40.325 -12.522  -3.898  0.00  0.00    -0.261 OA
ATOM     17  C   UNL d   1      41.373 -12.729  -2.925  0.00  0.00     0.240 C 
ENDBRANCH  15  16
BRANCH  14  18
ATOM     18  C   UNL d   1      38.400  -9.503  -3.397  0.00  0.00     0.102 A 
ATOM     19  N   UNL d   1      38.555  -8.126  -3.320  0.00  0.00    -0.222 NA
ATOM     20  C   UNL d   1      37.420  -7.556  -3.008  0.00  0.00     0.164 A 
ATOM     21  S   UNL d   1      36.122  -8.624  -2.668  0.00  0.00    -0.062 SA
ATOM     22  C   UNL d   1      37.140  -9.953  -3.033  0.00  0.00     0.087 A 
BRANCH  20  23
ATOM     23  N   UNL d   1      37.269  -6.228  -2.955  0.00  0.00    -0.378 N 
ATOM     24  H   UNL d   1      38.013  -5.629  -3.286  0.00  0.00     0.158 HD
ATOM     25  H   UNL d   1      36.328  -5.879  -3.098  0.00  0.00     0.158 HD
ENDBRANCH  20  23
ENDBRANCH  14  18
ENDBRANCH  11  14
ENDBRANCH   5  10
BRANCH   7  26
ATOM     26  C   UNL d   1      44.508  -7.429  -0.163  0.00  0.00     0.194 C 
ATOM     27  OXT UNL d   1      44.352  -7.983   0.920  0.00  0.00    -0.645 OA
BRANCH  26  28
ATOM     28  O   UNL d   1      44.363  -6.093  -0.274  0.00  0.00    -0.772 OA
ATOM     29  H   UNL d   1      43.727  -5.793  -0.960  0.00  0.00     0.167 HD
ENDBRANCH  26  28
ENDBRANCH   7  26
BRANCH   8  30
ATOM     30  C   UNL d   1      47.226  -7.998  -1.281  0.00  0.00     0.216 C 
BRANCH  30  31
ATOM     31  O   UNL d   1      48.069  -9.108  -0.928  0.00  0.00    -0.317 OA
BRANCH  31  32
ATOM     32  C   UNL d   1      47.671  -9.857   0.133  0.00  0.00     0.255 C 
ATOM     33  O   UNL d   1      47.322  -9.424   1.220  0.00  0.00    -0.266 OA
ATOM     34  C   UNL d   1      47.709 -11.311  -0.231  0.00  0.00     0.126 C 
ENDBRANCH  31  32
ENDBRANCH  30  31
ENDBRANCH   8  30
TORSDOF 10
ENDMDL
MODEL 5
REMARK VINA RESULT:      -6.1      3.725      6.039
REMARK  10 active torsions:
REMARK  status: ('A' for Active; 'I' for Inactive)
REMARK    1  A    between atoms: O_4  and  C_21 
REMARK    2  A    between atoms: O_4  and  C_26 
REMARK    3  A    between atoms: O_5  and  C_22 
REMARK    4  A    between atoms: O_8  and  N_12 
REMARK    5  A    between atoms: CA_16  and  N_11 
REMARK       I    between atoms: N_11  and  C_23 
REMARK    6  A    between atoms: N_14  and  C_29 
REMARK    7  A    between atoms: CA_18  and  C_22 
REMARK    8  A    between atoms: C_19  and  C_21 
REMARK    9  A    between atoms: C_23  and  C_24 
REMARK   10  A    between atoms: C_24  and  C_25 
ROOT
ATOM      1  S   UNL d   1      42.351  -9.333  -3.777  0.00  0.00    -0.136 SA
ATOM      2  O   UNL d   1      45.536  -9.959  -1.181  0.00  0.00    -0.271 OA
ATOM      3  N   UNL d   1      44.319  -8.325  -2.314  0.00  0.00    -0.293 N 
ATOM      4  C   UNL d   1      44.000  -8.556  -3.713  0.00  0.00     0.187 C 
ATOM      5  CA  UNL d   1      45.271  -9.497  -3.724  0.00  0.00     0.211 C 
ATOM      6  C   UNL d   1      45.096  -9.432  -2.186  0.00  0.00     0.251 C 
ATOM      7  CA  UNL d   1      43.485  -7.710  -1.400  0.00  0.00     0.117 C 
ATOM      8  C   UNL d   1      42.175  -7.476  -1.698  0.00  0.00    -0.013 C 
ATOM      9  C   UNL d   1      41.527  -7.897  -3.001  0.00  0.00     0.115 C 
ENDROOT
BRANCH   5  10
ATOM     10  N   UNL d   1      45.217 -10.759  -4.556  0.00  0.00    -0.339 N 
ATOM     11  C   UNL d   1      46.212 -10.919  -5.515  0.00  0.00     0.275 C 
ATOM     12  O   UNL d   1      46.223 -11.914  -6.236  0.00  0.00    -0.266 OA
ATOM     13  H   UNL d   1      44.619 -11.541  -4.326  0.00  0.00     0.163 HD
BRANCH  11  14
ATOM     14  C   UNL d   1      47.364  -9.892  -5.673  0.00  0.00     0.180 C 
ATOM     15  N   UNL d   1      48.552  -9.875  -5.136  0.00  0.00    -0.126 NA
BRANCH  15  16
ATOM     16  O   UNL d   1      48.890 -10.891  -4.246  0.00  0.00    -0.261 OA
ATOM     17  C   UNL d   1      48.851 -10.318  -2.921  0.00  0.00     0.240 C 
ENDBRANCH  15  16
BRANCH  14  18
ATOM     18  C   UNL d   1      47.057  -8.681  -6.443  0.00  0.00     0.102 A 
ATOM     19  N   UNL d   1      45.887  -8.561  -7.178  0.00  0.00    -0.222 NA
ATOM     20  C   UNL d   1      45.751  -7.339  -7.626  0.00  0.00     0.164 A 
ATOM     21  S   UNL d   1      47.062  -6.282  -7.304  0.00  0.00    -0.062 SA
ATOM     22  C   UNL d   1      47.844  -7.538  -6.440  0.00  0.00     0.087 A 
BRANCH  20  23
ATOM     23  N   UNL d   1      44.665  -6.929  -8.290  0.00  0.00    -0.378 N 
ATOM     24  H   UNL d   1      44.198  -7.566  -8.921  0.00  0.00     0.158 HD
ATOM     25  H   UNL d   1      44.064  -6.274  -7.804  0.00  0.00     0.158 HD
ENDBRANCH  20  23
ENDBRANCH  14  18
ENDBRANCH  11  14
ENDBRANCH   5  10
BRANCH   7  26
ATOM     26  C   UNL d   1      44.106  -7.166  -0.133  0.00  0.00     0.194 C 
ATOM     27  OXT UNL d   1      44.239  -7.815   0.899  0.00  0.00    -0.645 OA
BRANCH  26  28
ATOM     28  O   UNL d   1      44.373  -5.843  -0.146  0.00  0.00    -0.772 OA
ATOM     29  H   UNL d   1      45.317  -5.602  -0.029  0.00  0.00     0.167 HD
ENDBRANCH  26  28
ENDBRANCH   7  26
BRANCH   8  30
ATOM     30  C   UNL d   1      41.190  -6.841  -0.724  0.00  0.00     0.216 C 
BRANCH  30  31
ATOM     31  O   UNL d   1      40.631  -7.845   0.138  0.00  0.00    -0.317 OA
BRANCH  31  32
ATOM     32  C   UNL d   1      39.386  -7.602   0.624  0.00  0.00     0.255 C 
ATOM     33  O   UNL d   1      39.115  -6.836   1.537  0.00  0.00    -0.266 OA
ATOM     34  C   UNL d   1      38.377  -8.407  -0.138  0.00  0.00     0.126 C 
ENDBRANCH  31  32
ENDBRANCH  30  31
ENDBRANCH   8  30
TORSDOF 10
ENDMDL
MODEL 6
REMARK VINA RESULT:      -6.1      3.751      8.186
REMARK  10 active torsions:
REMARK  status: ('A' for Active; 'I' for Inactive)
REMARK    1  A    between atoms: O_4  and  C_21 
REMARK    2  A    between atoms: O_4  and  C_26 
REMARK    3  A    between atoms: O_5  and  C_22 
REMARK    4  A    between atoms: O_8  and  N_12 
REMARK    5  A    between atoms: CA_16  and  N_11 
REMARK       I    between atoms: N_11  and  C_23 
REMARK    6  A    between atoms: N_14  and  C_29 
REMARK    7  A    between atoms: CA_18  and  C_22 
REMARK    8  A    between atoms: C_19  and  C_21 
REMARK    9  A    between atoms: C_23  and  C_24 
REMARK   10  A    between atoms: C_24  and  C_25 
ROOT
ATOM      1  S   UNL d   1      41.282 -10.428  -3.363  0.00  0.00    -0.136 SA
ATOM      2  O   UNL d   1      39.537  -9.571  -7.037  0.00  0.00    -0.271 OA
ATOM      3  N   UNL d   1      40.985  -8.757  -5.401  0.00  0.00    -0.293 N 
ATOM      4  C   UNL d   1      40.580  -8.873  -4.009  0.00  0.00     0.187 C 
ATOM      5  CA  UNL d   1      39.100  -8.895  -4.566  0.00  0.00     0.211 C 
ATOM      6  C   UNL d   1      39.810  -9.221  -5.903  0.00  0.00     0.251 C 
ATOM      7  CA  UNL d   1      42.276  -8.909  -5.867  0.00  0.00     0.117 C 
ATOM      8  C   UNL d   1      43.254  -9.418  -5.064  0.00  0.00    -0.013 C 
ATOM      9  C   UNL d   1      43.007  -9.891  -3.646  0.00  0.00     0.115 C 
ENDROOT
BRANCH   5  10
ATOM     10  N   UNL d   1      38.091  -9.785  -3.875  0.00  0.00    -0.339 N 
ATOM     11  C   UNL d   1      37.118  -9.151  -3.109  0.00  0.00     0.275 C 
ATOM     12  O   UNL d   1      36.274  -9.812  -2.510  0.00  0.00    -0.266 OA
ATOM     13  H   UNL d   1      37.993 -10.769  -4.087  0.00  0.00     0.163 HD
BRANCH  11  14
ATOM     14  C   UNL d   1      37.024  -7.604  -3.031  0.00  0.00     0.180 C 
ATOM     15  N   UNL d   1      36.614  -6.743  -3.919  0.00  0.00    -0.126 NA
BRANCH  15  16
ATOM     16  O   UNL d   1      36.217  -7.217  -5.166  0.00  0.00    -0.261 OA
ATOM     17  C   UNL d   1      34.794  -6.991  -5.268  0.00  0.00     0.240 C 
ENDBRANCH  15  16
BRANCH  14  18
ATOM     18  C   UNL d   1      37.588  -6.977  -1.830  0.00  0.00     0.102 A 
ATOM     19  N   UNL d   1      36.832  -6.790  -0.681  0.00  0.00    -0.222 NA
ATOM     20  C   UNL d   1      37.591  -6.384   0.304  0.00  0.00     0.164 A 
ATOM     21  S   UNL d   1      39.230  -6.082  -0.098  0.00  0.00    -0.062 SA
ATOM     22  C   UNL d   1      38.917  -6.600  -1.701  0.00  0.00     0.087 A 
BRANCH  20  23
ATOM     23  N   UNL d   1      37.130  -6.213   1.548  0.00  0.00    -0.378 N 
ATOM     24  H   UNL d   1      37.377  -5.377   2.059  0.00  0.00     0.158 HD
ATOM     25  H   UNL d   1      36.209  -6.589   1.739  0.00  0.00     0.158 HD
ENDBRANCH  20  23
ENDBRANCH  14  18
ENDBRANCH  11  14
ENDBRANCH   5  10
BRANCH   7  26
ATOM     26  C   UNL d   1      42.603  -8.346  -7.232  0.00  0.00     0.194 C 
ATOM     27  OXT UNL d   1      43.005  -7.203  -7.423  0.00  0.00    -0.645 OA
BRANCH  26  28
ATOM     28  O   UNL d   1      42.272  -9.135  -8.275  0.00  0.00    -0.772 OA
ATOM     29  H   UNL d   1      42.433  -8.750  -9.163  0.00  0.00     0.167 HD
ENDBRANCH  26  28
ENDBRANCH   7  26
BRANCH   8  30
ATOM     30  C   UNL d   1      44.687  -9.651  -5.525  0.00  0.00     0.216 C 
BRANCH  30  31
ATOM     31  O   UNL d   1      45.517  -8.542  -5.142  0.00  0.00    -0.317 OA
BRANCH  31  32
ATOM     32  C   UNL d   1      46.209  -7.929  -6.137  0.00  0.00     0.255 C 
ATOM     33  O   UNL d   1      46.643  -6.788  -6.105  0.00  0.00    -0.266 OA
ATOM     34  C   UNL d   1      46.377  -8.871  -7.291  0.00  0.00     0.126 C 
ENDBRANCH  31  32
ENDBRANCH  30  31
ENDBRANCH   8  30
TORSDOF 10
ENDMDL
MODEL 7
REMARK VINA RESULT:      -6.1      1.249      1.364
REMARK  10 active torsions:
REMARK  status: ('A' for Active; 'I' for Inactive)
REMARK    1  A    between atoms: O_4  and  C_21 
REMARK    2  A    between atoms: O_4  and  C_26 
REMARK    3  A    between atoms: O_5  and  C_22 
REMARK    4  A    between atoms: O_8  and  N_12 
REMARK    5  A    between atoms: CA_16  and  N_11 
REMARK       I    between atoms: N_11  and  C_23 
REMARK    6  A    between atoms: N_14  and  C_29 
REMARK    7  A    between atoms: CA_18  and  C_22 
REMARK    8  A    between atoms: C_19  and  C_21 
REMARK    9  A    between atoms: C_23  and  C_24 
REMARK   10  A    between atoms: C_24  and  C_25 
ROOT
ATOM      1  S   UNL d   1      39.646  -7.311  -0.909  0.00  0.00    -0.136 SA
ATOM      2  O   UNL d   1      41.409  -7.160  -4.670  0.00  0.00    -0.271 OA
ATOM      3  N   UNL d   1      40.205  -8.515  -3.205  0.00  0.00    -0.293 N 
ATOM      4  C   UNL d   1      40.623  -8.558  -1.812  0.00  0.00     0.187 C 
ATOM      5  CA  UNL d   1      42.050  -8.144  -2.353  0.00  0.00     0.211 C 
ATOM      6  C   UNL d   1      41.247  -7.745  -3.615  0.00  0.00     0.251 C 
ATOM      7  CA  UNL d   1      38.895  -8.550  -3.642  0.00  0.00     0.117 C 
ATOM      8  C   UNL d   1      37.862  -8.393  -2.766  0.00  0.00    -0.013 C 
ATOM      9  C   UNL d   1      38.055  -8.128  -1.286  0.00  0.00     0.115 C 
ENDROOT
BRANCH   5  10
ATOM     10  N   UNL d   1      42.883  -7.199  -1.514  0.00  0.00    -0.339 N 
ATOM     11  C   UNL d   1      44.225  -7.528  -1.347  0.00  0.00     0.275 C 
ATOM     12  O   UNL d   1      44.957  -6.813  -0.668  0.00  0.00    -0.266 OA
ATOM     13  H   UNL d   1      42.558  -6.283  -1.236  0.00  0.00     0.163 HD
BRANCH  11  14
ATOM     14  C   UNL d   1      44.854  -8.760  -2.049  0.00  0.00     0.180 C 
ATOM     15  N   UNL d   1      45.124  -9.946  -1.579  0.00  0.00    -0.126 NA
BRANCH  15  16
ATOM     16  O   UNL d   1      44.863 -10.200  -0.235  0.00  0.00    -0.261 OA
ATOM     17  C   UNL d   1      45.981 -10.961   0.273  0.00  0.00     0.240 C 
ENDBRANCH  15  16
BRANCH  14  18
ATOM     18  C   UNL d   1      45.340  -8.553  -3.418  0.00  0.00     0.102 A 
ATOM     19  N   UNL d   1      46.260  -7.559  -3.724  0.00  0.00    -0.222 NA
ATOM     20  C   UNL d   1      46.674  -7.684  -4.958  0.00  0.00     0.164 A 
ATOM     21  S   UNL d   1      45.912  -8.916  -5.875  0.00  0.00    -0.062 SA
ATOM     22  C   UNL d   1      45.004  -9.363  -4.493  0.00  0.00     0.087 A 
BRANCH  20  23
ATOM     23  N   UNL d   1      47.631  -6.909  -5.481  0.00  0.00    -0.378 N 
ATOM     24  H   UNL d   1      47.412  -6.310  -6.264  0.00  0.00     0.158 HD
ATOM     25  H   UNL d   1      48.320  -6.549  -4.830  0.00  0.00     0.158 HD
ENDBRANCH  20  23
ENDBRANCH  14  18
ENDBRANCH  11  14
ENDBRANCH   5  10
BRANCH   7  26
ATOM     26  C   UNL d   1      38.644  -8.927  -5.085  0.00  0.00     0.194 C 
ATOM     27  OXT UNL d   1      38.646 -10.080  -5.501  0.00  0.00    -0.645 OA
BRANCH  26  28
ATOM     28  O   UNL d   1      38.570  -7.890  -5.945  0.00  0.00    -0.772 OA
ATOM     29  H   UNL d   1      38.302  -8.121  -6.861  0.00  0.00     0.167 HD
ENDBRANCH  26  28
ENDBRANCH   7  26
BRANCH   8  30
ATOM     30  C   UNL d   1      36.397  -8.379  -3.184  0.00  0.00     0.216 C 
BRANCH  30  31
ATOM     31  O   UNL d   1      36.078  -7.135  -3.829  0.00  0.00    -0.317 OA
BRANCH  31  32
ATOM     32  C   UNL d   1      35.305  -7.210  -4.943  0.00  0.00     0.255 C 
ATOM     33  O   UNL d   1      35.706  -7.150  -6.095  0.00  0.00    -0.266 OA
ATOM     34  C   UNL d   1      33.869  -7.395  -4.551  0.00  0.00     0.126 C 
ENDBRANCH  31  32
ENDBRANCH  30  31
ENDBRANCH   8  30
TORSDOF 10
ENDMDL
MODEL 8
REMARK VINA RESULT:      -6.0      3.670      7.680
REMARK  10 active torsions:
REMARK  status: ('A' for Active; 'I' for Inactive)
REMARK    1  A    between atoms: O_4  and  C_21 
REMARK    2  A    between atoms: O_4  and  C_26 
REMARK    3  A    between atoms: O_5  and  C_22 
REMARK    4  A    between atoms: O_8  and  N_12 
REMARK    5  A    between atoms: CA_16  and  N_11 
REMARK       I    between atoms: N_11  and  C_23 
REMARK    6  A    between atoms: N_14  and  C_29 
REMARK    7  A    between atoms: CA_18  and  C_22 
REMARK    8  A    between atoms: C_19  and  C_21 
REMARK    9  A    between atoms: C_23  and  C_24 
REMARK   10  A    between atoms: C_24  and  C_25 
ROOT
ATOM      1  S   UNL d   1      40.239  -6.802  -5.558  0.00  0.00    -0.136 SA
ATOM      2  O   UNL d   1      42.851  -7.740  -2.464  0.00  0.00    -0.271 OA
ATOM      3  N   UNL d   1      41.573  -8.643  -4.192  0.00  0.00    -0.293 N 
ATOM      4  C   UNL d   1      40.207  -8.170  -4.352  0.00  0.00     0.187 C 
ATOM      5  CA  UNL d   1      40.278  -7.813  -2.813  0.00  0.00     0.211 C 
ATOM      6  C   UNL d   1      41.803  -7.950  -3.045  0.00  0.00     0.251 C 
ATOM      7  CA  UNL d   1      42.429  -8.961  -5.228  0.00  0.00     0.117 C 
ATOM      8  C   UNL d   1      42.123  -8.629  -6.515  0.00  0.00    -0.013 C 
ATOM      9  C   UNL d   1      40.875  -7.862  -6.904  0.00  0.00     0.115 C 
ENDROOT
BRANCH   5  10
ATOM     10  N   UNL d   1      39.577  -6.559  -2.339  0.00  0.00    -0.339 N 
ATOM     11  C   UNL d   1      38.264  -6.702  -1.902  0.00  0.00     0.275 C 
ATOM     12  O   UNL d   1      37.629  -5.725  -1.516  0.00  0.00    -0.266 OA
ATOM     13  H   UNL d   1      40.066  -5.692  -2.164  0.00  0.00     0.163 HD
BRANCH  11  14
ATOM     14  C   UNL d   1      37.577  -8.092  -1.832  0.00  0.00     0.180 C 
ATOM     15  N   UNL d   1      37.815  -9.106  -1.047  0.00  0.00    -0.126 NA
BRANCH  15  16
ATOM     16  O   UNL d   1      38.857  -9.003  -0.130  0.00  0.00    -0.261 OA
ATOM     17  C   UNL d   1      38.285  -8.514   1.103  0.00  0.00     0.240 C 
ENDBRANCH  15  16
BRANCH  14  18
ATOM     18  C   UNL d   1      36.585  -8.383  -2.873  0.00  0.00     0.102 A 
ATOM     19  N   UNL d   1      35.404  -9.054  -2.589  0.00  0.00    -0.222 NA
ATOM     20  C   UNL d   1      34.608  -9.036  -3.626  0.00  0.00     0.164 A 
ATOM     21  S   UNL d   1      35.255  -8.326  -5.047  0.00  0.00    -0.062 SA
ATOM     22  C   UNL d   1      36.689  -7.953  -4.187  0.00  0.00     0.087 A 
BRANCH  20  23
ATOM     23  N   UNL d   1      33.366  -9.534  -3.593  0.00  0.00    -0.378 N 
ATOM     24  H   UNL d   1      33.119 -10.205  -2.879  0.00  0.00     0.158 HD
ATOM     25  H   UNL d   1      32.625  -8.907  -3.883  0.00  0.00     0.158 HD
ENDBRANCH  20  23
ENDBRANCH  14  18
ENDBRANCH  11  14
ENDBRANCH   5  10
BRANCH   7  26
ATOM     26  C   UNL d   1      43.629  -9.827  -4.910  0.00  0.00     0.194 C 
ATOM     27  OXT UNL d   1      44.764  -9.391  -4.750  0.00  0.00    -0.645 OA
BRANCH  26  28
ATOM     28  O   UNL d   1      43.410 -11.156  -4.969  0.00  0.00    -0.772 OA
ATOM     29  H   UNL d   1      42.536 -11.455  -4.635  0.00  0.00     0.167 HD
ENDBRANCH  26  28
ENDBRANCH   7  26
BRANCH   8  30
ATOM     30  C   UNL d   1      43.038  -8.912  -7.699  0.00  0.00     0.216 C 
BRANCH  30  31
ATOM     31  O   UNL d   1      43.645  -7.693  -8.158  0.00  0.00    -0.317 OA
BRANCH  31  32
ATOM     32  C   UNL d   1      44.972  -7.544  -7.907  0.00  0.00     0.255 C 
ATOM     33  O   UNL d   1      45.496  -6.560  -7.407  0.00  0.00    -0.266 OA
ATOM     34  C   UNL d   1      45.709  -8.781  -8.324  0.00  0.00     0.126 C 
ENDBRANCH  31  32
ENDBRANCH  30  31
ENDBRANCH   8  30
TORSDOF 10
ENDMDL
MODEL 9
REMARK VINA RESULT:      -6.0      3.545      5.236
REMARK  10 active torsions:
REMARK  status: ('A' for Active; 'I' for Inactive)
REMARK    1  A    between atoms: O_4  and  C_21 
REMARK    2  A    between atoms: O_4  and  C_26 
REMARK    3  A    between atoms: O_5  and  C_22 
REMARK    4  A    between atoms: O_8  and  N_12 
REMARK    5  A    between atoms: CA_16  and  N_11 
REMARK       I    between atoms: N_11  and  C_23 
REMARK    6  A    between atoms: N_14  and  C_29 
REMARK    7  A    between atoms: CA_18  and  C_22 
REMARK    8  A    between atoms: C_19  and  C_21 
REMARK    9  A    between atoms: C_23  and  C_24 
REMARK   10  A    between atoms: C_24  and  C_25 
ROOT
ATOM      1  S   UNL d   1      37.189  -7.667  -6.832  0.00  0.00    -0.136 SA
ATOM      2  O   UNL d   1      37.511 -10.326  -3.653  0.00  0.00    -0.271 OA
ATOM      3  N   UNL d   1      36.731  -8.220  -4.279  0.00  0.00    -0.293 N 
ATOM      4  C   UNL d   1      37.604  -7.377  -5.080  0.00  0.00     0.187 C 
ATOM      5  CA  UNL d   1      38.790  -8.208  -4.444  0.00  0.00     0.211 C 
ATOM      6  C   UNL d   1      37.654  -9.200  -4.091  0.00  0.00     0.251 C 
ATOM      7  CA  UNL d   1      35.359  -8.303  -4.420  0.00  0.00     0.117 C 
ATOM      8  C   UNL d   1      34.734  -7.757  -5.502  0.00  0.00    -0.013 C 
ATOM      9  C   UNL d   1      35.472  -7.071  -6.634  0.00  0.00     0.115 C 
ENDROOT
BRANCH   5  10
ATOM     10  N   UNL d   1      39.986  -8.525  -5.316  0.00  0.00    -0.339 N 
ATOM     11  C   UNL d   1      41.119  -9.012  -4.672  0.00  0.00     0.275 C 
ATOM     12  O   UNL d   1      42.130  -9.278  -5.315  0.00  0.00    -0.266 OA
ATOM     13  H   UNL d   1      39.932  -8.567  -6.324  0.00  0.00     0.163 HD
BRANCH  11  14
ATOM     14  C   UNL d   1      41.131  -9.289  -3.145  0.00  0.00     0.180 C 
ATOM     15  N   UNL d   1      40.804 -10.365  -2.485  0.00  0.00    -0.126 NA
BRANCH  15  16
ATOM     16  O   UNL d   1      40.328 -11.460  -3.201  0.00  0.00    -0.261 OA
ATOM     17  C   UNL d   1      41.374 -12.456  -3.190  0.00  0.00     0.240 C 
ENDBRANCH  15  16
BRANCH  14  18
ATOM     18  C   UNL d   1      41.439  -8.147  -2.277  0.00  0.00     0.102 A 
ATOM     19  N   UNL d   1      40.441  -7.425  -1.638  0.00  0.00    -0.222 NA
ATOM     20  C   UNL d   1      40.962  -6.580  -0.787  0.00  0.00     0.164 A 
ATOM     21  S   UNL d   1      42.675  -6.500  -0.774  0.00  0.00    -0.062 SA
ATOM     22  C   UNL d   1      42.726  -7.743  -1.952  0.00  0.00     0.087 A 
BRANCH  20  23
ATOM     23  N   UNL d   1      40.217  -5.823   0.027  0.00  0.00    -0.378 N 
ATOM     24  H   UNL d   1      39.602  -5.125  -0.367  0.00  0.00     0.158 HD
ATOM     25  H   UNL d   1      39.889  -6.268   0.876  0.00  0.00     0.158 HD
ENDBRANCH  20  23
ENDBRANCH  14  18
ENDBRANCH  11  14
ENDBRANCH   5  10
BRANCH   7  26
ATOM     26  C   UNL d   1      34.565  -8.872  -3.265  0.00  0.00     0.194 C 
ATOM     27  OXT UNL d   1      34.501  -8.352  -2.156  0.00  0.00    -0.645 OA
BRANCH  26  28
ATOM     28  O   UNL d   1      34.042 -10.098  -3.476  0.00  0.00    -0.772 OA
ATOM     29  H   UNL d   1      33.345 -10.373  -2.842  0.00  0.00     0.167 HD
ENDBRANCH  26  28
ENDBRANCH   7  26
BRANCH   8  30
ATOM     30  C   UNL d   1      33.233  -7.846  -5.742  0.00  0.00     0.216 C 
BRANCH  30  31
ATOM     31  O   UNL d   1      32.897  -9.125  -6.307  0.00  0.00    -0.317 OA
BRANCH  31  32
ATOM     32  C   UNL d   1      31.662  -9.236  -6.862  0.00  0.00     0.255 C 
ATOM     33  O   UNL d   1      30.602  -9.044  -6.286  0.00  0.00    -0.266 OA
ATOM     34  C   UNL d   1      31.789  -9.621  -8.305  0.00  0.00     0.126 C 
ENDBRANCH  31  32
ENDBRANCH  30  31
ENDBRANCH   8  30
TORSDOF 10
ENDMDL
