MODEL 1
REMARK VINA RESULT:      -7.3      0.000      0.000
REMARK  10 active torsions:
REMARK  status: ('A' for Active; 'I' for Inactive)
REMARK    1  A    between atoms: O_4  and  C_21 
REMARK    2  A    between atoms: O_4  and  C_26 
REMARK    3  A    between atoms: O_5  and  C_22 
REMARK    4  A    between atoms: O_8  and  N_12 
REMARK    5  A    between atoms: CA_16  and  N_11 
REMARK       I    between atoms: N_11  and  C_23 
REMARK    6  A    between atoms: N_14  and  C_29 
REMARK    7  A    between atoms: CA_18  and  C_22 
REMARK    8  A    between atoms: C_19  and  C_21 
REMARK    9  A    between atoms: C_23  and  C_24 
REMARK   10  A    between atoms: C_24  and  C_25 
ROOT
ATOM      1  S   UNL d   1      37.740  -8.991  -2.547  0.00  0.00    -0.136 SA
ATOM      2  O   UNL d   1      41.747  -7.942  -2.859  0.00  0.00    -0.271 OA
ATOM      3  N   UNL d   1      39.615  -7.087  -2.480  0.00  0.00    -0.293 N 
ATOM      4  C   UNL d   1      38.533  -7.558  -3.344  0.00  0.00     0.187 C 
ATOM      5  CA  UNL d   1      39.645  -7.872  -4.401  0.00  0.00     0.211 C 
ATOM      6  C   UNL d   1      40.600  -7.717  -3.178  0.00  0.00     0.251 C 
ATOM      7  CA  UNL d   1      39.466  -6.854  -1.134  0.00  0.00     0.117 C 
ATOM      8  C   UNL d   1      38.348  -7.247  -0.469  0.00  0.00    -0.013 C 
ATOM      9  C   UNL d   1      37.216  -8.028  -1.107  0.00  0.00     0.115 C 
ENDROOT
BRANCH   5  10
ATOM     10  N   UNL d   1      39.500  -9.147  -5.156  0.00  0.00    -0.339 N 
ATOM     11  C   UNL d   1      39.672  -9.119  -6.539  0.00  0.00     0.275 C 
ATOM     12  O   UNL d   1      39.553 -10.134  -7.223  0.00  0.00    -0.266 OA
ATOM     13  H   UNL d   1      39.573 -10.055  -4.695  0.00  0.00     0.163 HD
BRANCH  11  14
ATOM     14  C   UNL d   1      39.955  -7.753  -7.185  0.00  0.00     0.180 C 
ATOM     15  N   UNL d   1      41.122  -7.171  -7.221  0.00  0.00    -0.126 NA
BRANCH  15  16
ATOM     16  O   UNL d   1      42.151  -7.895  -6.617  0.00  0.00    -0.261 OA
ATOM     17  C   UNL d   1      43.067  -8.272  -7.644  0.00  0.00     0.240 C 
ENDBRANCH  15  16
BRANCH  14  18
ATOM     18  C   UNL d   1      38.881  -6.987  -7.818  0.00  0.00     0.102 A 
ATOM     19  N   UNL d   1      38.930  -6.617  -9.159  0.00  0.00    -0.222 NA
ATOM     20  C   UNL d   1      37.820  -6.009  -9.498  0.00  0.00     0.164 A 
ATOM     21  S   UNL d   1      36.668  -5.804  -8.246  0.00  0.00    -0.062 SA
ATOM     22  C   UNL d   1      37.720  -6.602  -7.165  0.00  0.00     0.087 A 
BRANCH  20  23
ATOM     23  N   UNL d   1      37.573  -5.571 -10.739  0.00  0.00    -0.378 N 
ATOM     24  H   UNL d   1      38.245  -4.956 -11.178  0.00  0.00     0.158 HD
ATOM     25  H   UNL d   1      37.100  -6.206 -11.371  0.00  0.00     0.158 HD
ENDBRANCH  20  23
ENDBRANCH  14  18
ENDBRANCH  11  14
ENDBRANCH   5  10
BRANCH   7  26
ATOM     26  C   UNL d   1      40.516  -6.018  -0.436  0.00  0.00     0.194 C 
ATOM     27  OXT UNL d   1      40.357  -4.835  -0.164  0.00  0.00    -0.645 OA
BRANCH  26  28
ATOM     28  O   UNL d   1      41.697  -6.626  -0.223  0.00  0.00    -0.772 OA
ATOM     29  H   UNL d   1      41.653  -7.530   0.157  0.00  0.00     0.167 HD
ENDBRANCH  26  28
ENDBRANCH   7  26
BRANCH   8  30
ATOM     30  C   UNL d   1      38.116  -7.016   1.015  0.00  0.00     0.216 C 
BRANCH  30  31
ATOM     31  O   UNL d   1      38.885  -7.950   1.783  0.00  0.00    -0.317 OA
BRANCH  31  32
ATOM     32  C   UNL d   1      38.585  -8.032   3.105  0.00  0.00     0.255 C 
ATOM     33  O   UNL d   1      39.309  -7.673   4.023  0.00  0.00    -0.266 OA
ATOM     34  C   UNL d   1      37.223  -8.627   3.283  0.00  0.00     0.126 C 
ENDBRANCH  31  32
ENDBRANCH  30  31
ENDBRANCH   8  30
TORSDOF 10
ENDMDL
MODEL 2
REMARK VINA RESULT:      -6.9      3.765      9.166
REMARK  10 active torsions:
REMARK  status: ('A' for Active; 'I' for Inactive)
REMARK    1  A    between atoms: O_4  and  C_21 
REMARK    2  A    between atoms: O_4  and  C_26 
REMARK    3  A    between atoms: O_5  and  C_22 
REMARK    4  A    between atoms: O_8  and  N_12 
REMARK    5  A    between atoms: CA_16  and  N_11 
REMARK       I    between atoms: N_11  and  C_23 
REMARK    6  A    between atoms: N_14  and  C_29 
REMARK    7  A    between atoms: CA_18  and  C_22 
REMARK    8  A    between atoms: C_19  and  C_21 
REMARK    9  A    between atoms: C_23  and  C_24 
REMARK   10  A    between atoms: C_24  and  C_25 
ROOT
ATOM      1  S   UNL d   1      39.377  -8.976  -7.783  0.00  0.00    -0.136 SA
ATOM      2  O   UNL d   1      35.481  -7.791  -6.964  0.00  0.00    -0.271 OA
ATOM      3  N   UNL d   1      37.607  -6.996  -7.483  0.00  0.00    -0.293 N 
ATOM      4  C   UNL d   1      38.743  -7.593  -6.782  0.00  0.00     0.187 C 
ATOM      5  CA  UNL d   1      37.726  -7.959  -5.649  0.00  0.00     0.211 C 
ATOM      6  C   UNL d   1      36.664  -7.647  -6.747  0.00  0.00     0.251 C 
ATOM      7  CA  UNL d   1      37.634  -6.642  -8.810  0.00  0.00     0.117 C 
ATOM      8  C   UNL d   1      38.658  -7.017  -9.621  0.00  0.00    -0.013 C 
ATOM      9  C   UNL d   1      39.805  -7.903  -9.177  0.00  0.00     0.115 C 
ENDROOT
BRANCH   5  10
ATOM     10  N   UNL d   1      37.878  -9.305  -5.031  0.00  0.00    -0.339 N 
ATOM     11  C   UNL d   1      37.324  -9.520  -3.770  0.00  0.00     0.275 C 
ATOM     12  O   UNL d   1      37.426 -10.605  -3.199  0.00  0.00    -0.266 OA
ATOM     13  H   UNL d   1      38.100 -10.130  -5.591  0.00  0.00     0.163 HD
BRANCH  11  14
ATOM     14  C   UNL d   1      36.634  -8.326  -3.093  0.00  0.00     0.180 C 
ATOM     15  N   UNL d   1      35.410  -7.938  -3.328  0.00  0.00    -0.126 NA
BRANCH  15  16
ATOM     16  O   UNL d   1      34.728  -8.708  -4.270  0.00  0.00    -0.261 OA
ATOM     17  C   UNL d   1      33.346  -8.365  -4.182  0.00  0.00     0.240 C 
ENDBRANCH  15  16
BRANCH  14  18
ATOM     18  C   UNL d   1      37.343  -7.512  -2.106  0.00  0.00     0.102 A 
ATOM     19  N   UNL d   1      36.724  -7.049  -0.948  0.00  0.00    -0.222 NA
ATOM     20  C   UNL d   1      37.590  -6.413  -0.198  0.00  0.00     0.164 A 
ATOM     21  S   UNL d   1      39.179  -6.291  -0.831  0.00  0.00    -0.062 SA
ATOM     22  C   UNL d   1      38.683  -7.168  -2.209  0.00  0.00     0.087 A 
BRANCH  20  23
ATOM     23  N   UNL d   1      37.283  -5.888   0.994  0.00  0.00    -0.378 N 
ATOM     24  H   UNL d   1      38.004  -5.395   1.506  0.00  0.00     0.158 HD
ATOM     25  H   UNL d   1      36.347  -5.517   1.113  0.00  0.00     0.158 HD
ENDBRANCH  20  23
ENDBRANCH  14  18
ENDBRANCH  11  14
ENDBRANCH   5  10
BRANCH   7  26
ATOM     26  C   UNL d   1      36.565  -5.699  -9.317  0.00  0.00     0.194 C 
ATOM     27  OXT UNL d   1      36.347  -4.603  -8.815  0.00  0.00    -0.645 OA
BRANCH  26  28
ATOM     28  O   UNL d   1      35.781  -6.180 -10.299  0.00  0.00    -0.772 OA
ATOM     29  H   UNL d   1      36.131  -6.956 -10.788  0.00  0.00     0.167 HD
ENDBRANCH  26  28
ENDBRANCH   7  26
BRANCH   8  30
ATOM     30  C   UNL d   1      38.754  -6.655 -11.093  0.00  0.00     0.216 C 
BRANCH  30  31
ATOM     31  O   UNL d   1      39.740  -5.633 -11.283  0.00  0.00    -0.317 OA
BRANCH  31  32
ATOM     32  C   UNL d   1      39.360  -4.560 -12.025  0.00  0.00     0.255 C 
ATOM     33  O   UNL d   1      39.766  -3.415 -11.882  0.00  0.00    -0.266 OA
ATOM     34  C   UNL d   1      38.365  -4.984 -13.061  0.00  0.00     0.126 C 
ENDBRANCH  31  32
ENDBRANCH  30  31
ENDBRANCH   8  30
TORSDOF 10
ENDMDL
MODEL 3
REMARK VINA RESULT:      -6.9      3.974      6.352
REMARK  10 active torsions:
REMARK  status: ('A' for Active; 'I' for Inactive)
REMARK    1  A    between atoms: O_4  and  C_21 
REMARK    2  A    between atoms: O_4  and  C_26 
REMARK    3  A    between atoms: O_5  and  C_22 
REMARK    4  A    between atoms: O_8  and  N_12 
REMARK    5  A    between atoms: CA_16  and  N_11 
REMARK       I    between atoms: N_11  and  C_23 
REMARK    6  A    between atoms: N_14  and  C_29 
REMARK    7  A    between atoms: CA_18  and  C_22 
REMARK    8  A    between atoms: C_19  and  C_21 
REMARK    9  A    between atoms: C_23  and  C_24 
REMARK   10  A    between atoms: C_24  and  C_25 
ROOT
ATOM      1  S   UNL d   1      38.789  -9.961  -4.922  0.00  0.00    -0.136 SA
ATOM      2  O   UNL d   1      39.244  -9.187  -0.866  0.00  0.00    -0.271 OA
ATOM      3  N   UNL d   1      39.080  -8.173  -2.956  0.00  0.00    -0.293 N 
ATOM      4  C   UNL d   1      39.847  -8.758  -4.055  0.00  0.00     0.187 C 
ATOM      5  CA  UNL d   1      40.801  -9.332  -2.954  0.00  0.00     0.211 C 
ATOM      6  C   UNL d   1      39.620  -8.977  -1.999  0.00  0.00     0.251 C 
ATOM      7  CA  UNL d   1      37.811  -7.665  -3.101  0.00  0.00     0.117 C 
ATOM      8  C   UNL d   1      37.098  -7.862  -4.241  0.00  0.00    -0.013 C 
ATOM      9  C   UNL d   1      37.582  -8.701  -5.407  0.00  0.00     0.115 C 
ENDROOT
BRANCH   5  10
ATOM     10  N   UNL d   1      41.284 -10.726  -3.156  0.00  0.00    -0.339 N 
ATOM     11  C   UNL d   1      42.605 -10.915  -3.561  0.00  0.00     0.275 C 
ATOM     12  O   UNL d   1      43.063 -12.039  -3.759  0.00  0.00    -0.266 OA
ATOM     13  H   UNL d   1      40.803 -11.526  -2.743  0.00  0.00     0.163 HD
BRANCH  11  14
ATOM     14  C   UNL d   1      43.450  -9.655  -3.810  0.00  0.00     0.180 C 
ATOM     15  N   UNL d   1      43.533  -9.024  -4.949  0.00  0.00    -0.126 NA
BRANCH  15  16
ATOM     16  O   UNL d   1      42.770  -9.579  -5.977  0.00  0.00    -0.261 OA
ATOM     17  C   UNL d   1      42.506  -8.542  -6.920  0.00  0.00     0.240 C 
ENDBRANCH  15  16
BRANCH  14  18
ATOM     18  C   UNL d   1      44.255  -9.069  -2.738  0.00  0.00     0.102 A 
ATOM     19  N   UNL d   1      43.964  -7.821  -2.195  0.00  0.00    -0.222 NA
ATOM     20  C   UNL d   1      44.782  -7.560  -1.205  0.00  0.00     0.164 A 
ATOM     21  S   UNL d   1      45.966  -8.756  -0.879  0.00  0.00    -0.062 SA
ATOM     22  C   UNL d   1      45.334  -9.708  -2.146  0.00  0.00     0.087 A 
BRANCH  20  23
ATOM     23  N   UNL d   1      44.715  -6.441  -0.473  0.00  0.00    -0.378 N 
ATOM     24  H   UNL d   1      44.847  -6.509   0.528  0.00  0.00     0.158 HD
ATOM     25  H   UNL d   1      45.067  -5.588  -0.892  0.00  0.00     0.158 HD
ENDBRANCH  20  23
ENDBRANCH  14  18
ENDBRANCH  11  14
ENDBRANCH   5  10
BRANCH   7  26
ATOM     26  C   UNL d   1      37.281  -6.755  -2.016  0.00  0.00     0.194 C 
ATOM     27  OXT UNL d   1      37.479  -5.547  -1.999  0.00  0.00    -0.645 OA
BRANCH  26  28
ATOM     28  O   UNL d   1      36.659  -7.369  -0.992  0.00  0.00    -0.772 OA
ATOM     29  H   UNL d   1      37.242  -7.726  -0.287  0.00  0.00     0.167 HD
ENDBRANCH  26  28
ENDBRANCH   7  26
BRANCH   8  30
ATOM     30  C   UNL d   1      35.696  -7.323  -4.470  0.00  0.00     0.216 C 
BRANCH  30  31
ATOM     31  O   UNL d   1      34.831  -7.738  -3.404  0.00  0.00    -0.317 OA
BRANCH  31  32
ATOM     32  C   UNL d   1      33.829  -8.590  -3.740  0.00  0.00     0.255 C 
ATOM     33  O   UNL d   1      33.247  -9.344  -2.972  0.00  0.00    -0.266 OA
ATOM     34  C   UNL d   1      33.528  -8.473  -5.202  0.00  0.00     0.126 C 
ENDBRANCH  31  32
ENDBRANCH  30  31
ENDBRANCH   8  30
TORSDOF 10
ENDMDL
MODEL 4
REMARK VINA RESULT:      -6.7      3.503      5.045
REMARK  10 active torsions:
REMARK  status: ('A' for Active; 'I' for Inactive)
REMARK    1  A    between atoms: O_4  and  C_21 
REMARK    2  A    between atoms: O_4  and  C_26 
REMARK    3  A    between atoms: O_5  and  C_22 
REMARK    4  A    between atoms: O_8  and  N_12 
REMARK    5  A    between atoms: CA_16  and  N_11 
REMARK       I    between atoms: N_11  and  C_23 
REMARK    6  A    between atoms: N_14  and  C_29 
REMARK    7  A    between atoms: CA_18  and  C_22 
REMARK    8  A    between atoms: C_19  and  C_21 
REMARK    9  A    between atoms: C_23  and  C_24 
REMARK   10  A    between atoms: C_24  and  C_25 
ROOT
ATOM      1  S   UNL d   1      39.479  -6.981  -5.703  0.00  0.00    -0.136 SA
ATOM      2  O   UNL d   1      35.760  -6.110  -7.336  0.00  0.00    -0.271 OA
ATOM      3  N   UNL d   1      36.937  -7.701  -6.109  0.00  0.00    -0.293 N 
ATOM      4  C   UNL d   1      38.282  -8.049  -6.566  0.00  0.00     0.187 C 
ATOM      5  CA  UNL d   1      37.818  -7.575  -7.984  0.00  0.00     0.211 C 
ATOM      6  C   UNL d   1      36.650  -6.918  -7.186  0.00  0.00     0.251 C 
ATOM      7  CA  UNL d   1      36.591  -7.581  -4.785  0.00  0.00     0.117 C 
ATOM      8  C   UNL d   1      37.535  -7.575  -3.807  0.00  0.00    -0.013 C 
ATOM      9  C   UNL d   1      39.027  -7.622  -4.072  0.00  0.00     0.115 C 
ENDROOT
BRANCH   5  10
ATOM     10  N   UNL d   1      38.802  -6.785  -8.774  0.00  0.00    -0.339 N 
ATOM     11  C   UNL d   1      38.958  -7.086 -10.126  0.00  0.00     0.275 C 
ATOM     12  O   UNL d   1      39.763  -6.481 -10.832  0.00  0.00    -0.266 OA
ATOM     13  H   UNL d   1      39.137  -5.874  -8.457  0.00  0.00     0.163 HD
BRANCH  11  14
ATOM     14  C   UNL d   1      38.126  -8.251 -10.688  0.00  0.00     0.180 C 
ATOM     15  N   UNL d   1      38.452  -9.512 -10.603  0.00  0.00    -0.126 NA
BRANCH  15  16
ATOM     16  O   UNL d   1      39.654  -9.756  -9.938  0.00  0.00    -0.261 OA
ATOM     17  C   UNL d   1      39.879 -11.165  -9.969  0.00  0.00     0.240 C 
ENDBRANCH  15  16
BRANCH  14  18
ATOM     18  C   UNL d   1      36.866  -8.001 -11.388  0.00  0.00     0.102 A 
ATOM     19  N   UNL d   1      35.736  -8.788 -11.179  0.00  0.00    -0.222 NA
ATOM     20  C   UNL d   1      34.726  -8.314 -11.864  0.00  0.00     0.164 A 
ATOM     21  S   UNL d   1      35.056  -6.933 -12.824  0.00  0.00    -0.062 SA
ATOM     22  C   UNL d   1      36.672  -6.954 -12.276  0.00  0.00     0.087 A 
BRANCH  20  23
ATOM     23  N   UNL d   1      33.499  -8.850 -11.829  0.00  0.00    -0.378 N 
ATOM     24  H   UNL d   1      32.988  -8.944 -12.697  0.00  0.00     0.158 HD
ATOM     25  H   UNL d   1      33.332  -9.587 -11.154  0.00  0.00     0.158 HD
ENDBRANCH  20  23
ENDBRANCH  14  18
ENDBRANCH  11  14
ENDBRANCH   5  10
BRANCH   7  26
ATOM     26  C   UNL d   1      35.122  -7.603  -4.428  0.00  0.00     0.194 C 
ATOM     27  OXT UNL d   1      34.507  -8.633  -4.182  0.00  0.00    -0.645 OA
BRANCH  26  28
ATOM     28  O   UNL d   1      34.487  -6.419  -4.503  0.00  0.00    -0.772 OA
ATOM     29  H   UNL d   1      34.508  -5.974  -5.378  0.00  0.00     0.167 HD
ENDBRANCH  26  28
ENDBRANCH   7  26
BRANCH   8  30
ATOM     30  C   UNL d   1      37.222  -7.453  -2.325  0.00  0.00     0.216 C 
BRANCH  30  31
ATOM     31  O   UNL d   1      37.663  -6.181  -1.834  0.00  0.00    -0.317 OA
BRANCH  31  32
ATOM     32  C   UNL d   1      37.767  -6.060  -0.485  0.00  0.00     0.255 C 
ATOM     33  O   UNL d   1      36.836  -6.095   0.307  0.00  0.00    -0.266 OA
ATOM     34  C   UNL d   1      39.203  -5.882  -0.099  0.00  0.00     0.126 C 
ENDBRANCH  31  32
ENDBRANCH  30  31
ENDBRANCH   8  30
TORSDOF 10
ENDMDL
MODEL 5
REMARK VINA RESULT:      -6.6      3.836      5.686
REMARK  10 active torsions:
REMARK  status: ('A' for Active; 'I' for Inactive)
REMARK    1  A    between atoms: O_4  and  C_21 
REMARK    2  A    between atoms: O_4  and  C_26 
REMARK    3  A    between atoms: O_5  and  C_22 
REMARK    4  A    between atoms: O_8  and  N_12 
REMARK    5  A    between atoms: CA_16  and  N_11 
REMARK       I    between atoms: N_11  and  C_23 
REMARK    6  A    between atoms: N_14  and  C_29 
REMARK    7  A    between atoms: CA_18  and  C_22 
REMARK    8  A    between atoms: C_19  and  C_21 
REMARK    9  A    between atoms: C_23  and  C_24 
REMARK   10  A    between atoms: C_24  and  C_25 
ROOT
ATOM      1  S   UNL d   1      38.538 -10.896  -3.690  0.00  0.00    -0.136 SA
ATOM      2  O   UNL d   1      40.182  -8.379  -0.823  0.00  0.00    -0.271 OA
ATOM      3  N   UNL d   1      39.089  -8.409  -2.879  0.00  0.00    -0.293 N 
ATOM      4  C   UNL d   1      39.539  -9.385  -3.871  0.00  0.00     0.187 C 
ATOM      5  CA  UNL d   1      40.915  -9.364  -3.124  0.00  0.00     0.211 C 
ATOM      6  C   UNL d   1      40.088  -8.677  -1.994  0.00  0.00     0.251 C 
ATOM      7  CA  UNL d   1      37.770  -8.078  -2.682  0.00  0.00     0.117 C 
ATOM      8  C   UNL d   1      36.768  -8.795  -3.258  0.00  0.00    -0.013 C 
ATOM      9  C   UNL d   1      36.993 -10.041  -4.091  0.00  0.00     0.115 C 
ENDROOT
BRANCH   5  10
ATOM     10  N   UNL d   1      41.592 -10.678  -2.945  0.00  0.00    -0.339 N 
ATOM     11  C   UNL d   1      42.952 -10.765  -3.234  0.00  0.00     0.275 C 
ATOM     12  O   UNL d   1      43.568 -11.824  -3.119  0.00  0.00    -0.266 OA
ATOM     13  H   UNL d   1      41.189 -11.414  -2.361  0.00  0.00     0.163 HD
BRANCH  11  14
ATOM     14  C   UNL d   1      43.642  -9.496  -3.761  0.00  0.00     0.180 C 
ATOM     15  N   UNL d   1      44.066  -8.512  -3.017  0.00  0.00    -0.126 NA
BRANCH  15  16
ATOM     16  O   UNL d   1      43.854  -8.686  -1.649  0.00  0.00    -0.261 OA
ATOM     17  C   UNL d   1      44.767  -7.830  -0.964  0.00  0.00     0.240 C 
ENDBRANCH  15  16
BRANCH  14  18
ATOM     18  C   UNL d   1      43.865  -9.306  -5.194  0.00  0.00     0.102 A 
ATOM     19  N   UNL d   1      42.928  -8.679  -6.011  0.00  0.00    -0.222 NA
ATOM     20  C   UNL d   1      43.397  -8.567  -7.229  0.00  0.00     0.164 A 
ATOM     21  S   UNL d   1      44.957  -9.226  -7.493  0.00  0.00    -0.062 SA
ATOM     22  C   UNL d   1      45.025  -9.688  -5.851  0.00  0.00     0.087 A 
BRANCH  20  23
ATOM     23  N   UNL d   1      42.725  -7.973  -8.222  0.00  0.00    -0.378 N 
ATOM     24  H   UNL d   1      42.539  -8.502  -9.065  0.00  0.00     0.158 HD
ATOM     25  H   UNL d   1      42.000  -7.313  -7.965  0.00  0.00     0.158 HD
ENDBRANCH  20  23
ENDBRANCH  14  18
ENDBRANCH  11  14
ENDBRANCH   5  10
BRANCH   7  26
ATOM     26  C   UNL d   1      37.461  -6.806  -1.924  0.00  0.00     0.194 C 
ATOM     27  OXT UNL d   1      37.253  -6.780  -0.717  0.00  0.00    -0.645 OA
BRANCH  26  28
ATOM     28  O   UNL d   1      37.317  -5.700  -2.677  0.00  0.00    -0.772 OA
ATOM     29  H   UNL d   1      36.676  -5.764  -3.418  0.00  0.00     0.167 HD
ENDBRANCH  26  28
ENDBRANCH   7  26
BRANCH   8  30
ATOM     30  C   UNL d   1      35.292  -8.480  -3.088  0.00  0.00     0.216 C 
BRANCH  30  31
ATOM     31  O   UNL d   1      34.910  -7.424  -3.978  0.00  0.00    -0.317 OA
BRANCH  31  32
ATOM     32  C   UNL d   1      33.635  -7.463  -4.446  0.00  0.00     0.255 C 
ATOM     33  O   UNL d   1      32.684  -6.856  -3.973  0.00  0.00    -0.266 OA
ATOM     34  C   UNL d   1      33.558  -8.361  -5.641  0.00  0.00     0.126 C 
ENDBRANCH  31  32
ENDBRANCH  30  31
ENDBRANCH   8  30
TORSDOF 10
ENDMDL
MODEL 6
REMARK VINA RESULT:      -6.0      7.111      9.120
REMARK  10 active torsions:
REMARK  status: ('A' for Active; 'I' for Inactive)
REMARK    1  A    between atoms: O_4  and  C_21 
REMARK    2  A    between atoms: O_4  and  C_26 
REMARK    3  A    between atoms: O_5  and  C_22 
REMARK    4  A    between atoms: O_8  and  N_12 
REMARK    5  A    between atoms: CA_16  and  N_11 
REMARK       I    between atoms: N_11  and  C_23 
REMARK    6  A    between atoms: N_14  and  C_29 
REMARK    7  A    between atoms: CA_18  and  C_22 
REMARK    8  A    between atoms: C_19  and  C_21 
REMARK    9  A    between atoms: C_23  and  C_24 
REMARK   10  A    between atoms: C_24  and  C_25 
ROOT
ATOM      1  S   UNL d   1      45.472  -9.326  -3.959  0.00  0.00    -0.136 SA
ATOM      2  O   UNL d   1      47.347  -8.666  -0.311  0.00  0.00    -0.271 OA
ATOM      3  N   UNL d   1      45.954  -7.689  -1.901  0.00  0.00    -0.293 N 
ATOM      4  C   UNL d   1      46.317  -7.849  -3.309  0.00  0.00     0.187 C 
ATOM      5  CA  UNL d   1      47.787  -8.048  -2.807  0.00  0.00     0.211 C 
ATOM      6  C   UNL d   1      47.096  -8.257  -1.424  0.00  0.00     0.251 C 
ATOM      7  CA  UNL d   1      44.661  -7.732  -1.440  0.00  0.00     0.117 C 
ATOM      8  C   UNL d   1      43.639  -8.136  -2.239  0.00  0.00    -0.013 C 
ATOM      9  C   UNL d   1      43.824  -8.639  -3.658  0.00  0.00     0.115 C 
ENDROOT
BRANCH   5  10
ATOM     10  N   UNL d   1      48.580  -9.111  -3.483  0.00  0.00    -0.339 N 
ATOM     11  C   UNL d   1      49.609  -8.724  -4.339  0.00  0.00     0.275 C 
ATOM     12  O   UNL d   1      50.293  -9.552  -4.939  0.00  0.00    -0.266 OA
ATOM     13  H   UNL d   1      48.598 -10.071  -3.134  0.00  0.00     0.163 HD
BRANCH  11  14
ATOM     14  C   UNL d   1      49.816  -7.216  -4.553  0.00  0.00     0.180 C 
ATOM     15  N   UNL d   1      49.206  -6.498  -5.455  0.00  0.00    -0.126 NA
BRANCH  15  16
ATOM     16  O   UNL d   1      48.306  -7.209  -6.251  0.00  0.00    -0.261 OA
ATOM     17  C   UNL d   1      48.712  -7.040  -7.608  0.00  0.00     0.240 C 
ENDBRANCH  15  16
BRANCH  14  18
ATOM     18  C   UNL d   1      50.759  -6.465  -3.724  0.00  0.00     0.102 A 
ATOM     19  N   UNL d   1      50.794  -5.073  -3.721  0.00  0.00    -0.222 NA
ATOM     20  C   UNL d   1      51.668  -4.647  -2.844  0.00  0.00     0.164 A 
ATOM     21  S   UNL d   1      52.528  -5.863  -1.995  0.00  0.00    -0.062 SA
ATOM     22  C   UNL d   1      51.659  -7.057  -2.850  0.00  0.00     0.087 A 
BRANCH  20  23
ATOM     23  N   UNL d   1      51.891  -3.350  -2.600  0.00  0.00    -0.378 N 
ATOM     24  H   UNL d   1      52.759  -3.084  -2.152  0.00  0.00     0.158 HD
ATOM     25  H   UNL d   1      51.539  -2.681  -3.275  0.00  0.00     0.158 HD
ENDBRANCH  20  23
ENDBRANCH  14  18
ENDBRANCH  11  14
ENDBRANCH   5  10
BRANCH   7  26
ATOM     26  C   UNL d   1      44.378  -7.179  -0.061  0.00  0.00     0.194 C 
ATOM     27  OXT UNL d   1      44.267  -7.885   0.934  0.00  0.00    -0.645 OA
BRANCH  26  28
ATOM     28  O   UNL d   1      44.146  -5.855  -0.001  0.00  0.00    -0.772 OA
ATOM     29  H   UNL d   1      44.327  -5.425   0.864  0.00  0.00     0.167 HD
ENDBRANCH  26  28
ENDBRANCH   7  26
BRANCH   8  30
ATOM     30  C   UNL d   1      42.187  -8.201  -1.797  0.00  0.00     0.216 C 
BRANCH  30  31
ATOM     31  O   UNL d   1      41.715  -6.887  -1.472  0.00  0.00    -0.317 OA
BRANCH  31  32
ATOM     32  C   UNL d   1      40.488  -6.815  -0.894  0.00  0.00     0.255 C 
ATOM     33  O   UNL d   1      40.236  -6.282   0.178  0.00  0.00    -0.266 OA
ATOM     34  C   UNL d   1      39.472  -7.483  -1.767  0.00  0.00     0.126 C 
ENDBRANCH  31  32
ENDBRANCH  30  31
ENDBRANCH   8  30
TORSDOF 10
ENDMDL
MODEL 7
REMARK VINA RESULT:      -6.0     27.561     29.333
REMARK  10 active torsions:
REMARK  status: ('A' for Active; 'I' for Inactive)
REMARK    1  A    between atoms: O_4  and  C_21 
REMARK    2  A    between atoms: O_4  and  C_26 
REMARK    3  A    between atoms: O_5  and  C_22 
REMARK    4  A    between atoms: O_8  and  N_12 
REMARK    5  A    between atoms: CA_16  and  N_11 
REMARK       I    between atoms: N_11  and  C_23 
REMARK    6  A    between atoms: N_14  and  C_29 
REMARK    7  A    between atoms: CA_18  and  C_22 
REMARK    8  A    between atoms: C_19  and  C_21 
REMARK    9  A    between atoms: C_23  and  C_24 
REMARK   10  A    between atoms: C_24  and  C_25 
ROOT
ATOM      1  S   UNL d   1      15.199 -12.334  11.451  0.00  0.00    -0.136 SA
ATOM      2  O   UNL d   1      17.647  -9.112  12.385  0.00  0.00    -0.271 OA
ATOM      3  N   UNL d   1      16.488 -10.908  13.308  0.00  0.00    -0.293 N 
ATOM      4  C   UNL d   1      15.126 -11.151  12.833  0.00  0.00     0.187 C 
ATOM      5  CA  UNL d   1      15.093  -9.632  12.453  0.00  0.00     0.211 C 
ATOM      6  C   UNL d   1      16.639  -9.738  12.628  0.00  0.00     0.251 C 
ATOM      7  CA  UNL d   1      17.384 -11.911  13.593  0.00  0.00     0.117 C 
ATOM      8  C   UNL d   1      17.130 -13.202  13.253  0.00  0.00    -0.013 C 
ATOM      9  C   UNL d   1      15.905 -13.646  12.479  0.00  0.00     0.115 C 
ENDROOT
BRANCH   5  10
ATOM     10  N   UNL d   1      14.448  -9.288  11.155  0.00  0.00    -0.339 N 
ATOM     11  C   UNL d   1      13.899  -8.016  11.007  0.00  0.00     0.275 C 
ATOM     12  O   UNL d   1      13.341  -7.673   9.966  0.00  0.00    -0.266 OA
ATOM     13  H   UNL d   1      14.646  -9.815  10.302  0.00  0.00     0.163 HD
BRANCH  11  14
ATOM     14  C   UNL d   1      13.963  -7.077  12.222  0.00  0.00     0.180 C 
ATOM     15  N   UNL d   1      13.036  -6.970  13.135  0.00  0.00    -0.126 NA
BRANCH  15  16
ATOM     16  O   UNL d   1      11.932  -7.800  12.939  0.00  0.00    -0.261 OA
ATOM     17  C   UNL d   1      11.756  -8.563  14.132  0.00  0.00     0.240 C 
ENDBRANCH  15  16
BRANCH  14  18
ATOM     18  C   UNL d   1      15.117  -6.202  12.432  0.00  0.00     0.102 A 
ATOM     19  N   UNL d   1      15.656  -5.432  11.405  0.00  0.00    -0.222 NA
ATOM     20  C   UNL d   1      16.628  -4.685  11.867  0.00  0.00     0.164 A 
ATOM     21  S   UNL d   1      16.989  -4.872  13.532  0.00  0.00    -0.062 SA
ATOM     22  C   UNL d   1      15.742  -6.031  13.658  0.00  0.00     0.087 A 
BRANCH  20  23
ATOM     23  N   UNL d   1      17.309  -3.816  11.110  0.00  0.00    -0.378 N 
ATOM     24  H   UNL d   1      16.887  -3.489  10.250  0.00  0.00     0.158 HD
ATOM     25  H   UNL d   1      17.885  -3.133  11.588  0.00  0.00     0.158 HD
ENDBRANCH  20  23
ENDBRANCH  14  18
ENDBRANCH  11  14
ENDBRANCH   5  10
BRANCH   7  26
ATOM     26  C   UNL d   1      18.597 -11.565  14.427  0.00  0.00     0.194 C 
ATOM     27  OXT UNL d   1      19.692 -11.308  13.942  0.00  0.00    -0.645 OA
BRANCH  26  28
ATOM     28  O   UNL d   1      18.435 -11.660  15.760  0.00  0.00    -0.772 OA
ATOM     29  H   UNL d   1      17.640 -11.217  16.129  0.00  0.00     0.167 HD
ENDBRANCH  26  28
ENDBRANCH   7  26
BRANCH   8  30
ATOM     30  C   UNL d   1      18.071 -14.358  13.544  0.00  0.00     0.216 C 
BRANCH  30  31
ATOM     31  O   UNL d   1      17.402 -15.348  14.336  0.00  0.00    -0.317 OA
BRANCH  31  32
ATOM     32  C   UNL d   1      17.234 -15.052  15.652  0.00  0.00     0.255 C 
ATOM     33  O   UNL d   1      18.072 -14.536  16.378  0.00  0.00    -0.266 OA
ATOM     34  C   UNL d   1      15.859 -15.447  16.092  0.00  0.00     0.126 C 
ENDBRANCH  31  32
ENDBRANCH  30  31
ENDBRANCH   8  30
TORSDOF 10
ENDMDL
MODEL 8
REMARK VINA RESULT:      -5.6     28.329     30.554
REMARK  10 active torsions:
REMARK  status: ('A' for Active; 'I' for Inactive)
REMARK    1  A    between atoms: O_4  and  C_21 
REMARK    2  A    between atoms: O_4  and  C_26 
REMARK    3  A    between atoms: O_5  and  C_22 
REMARK    4  A    between atoms: O_8  and  N_12 
REMARK    5  A    between atoms: CA_16  and  N_11 
REMARK       I    between atoms: N_11  and  C_23 
REMARK    6  A    between atoms: N_14  and  C_29 
REMARK    7  A    between atoms: CA_18  and  C_22 
REMARK    8  A    between atoms: C_19  and  C_21 
REMARK    9  A    between atoms: C_23  and  C_24 
REMARK   10  A    between atoms: C_24  and  C_25 
ROOT
ATOM      1  S   UNL d   1      16.945  -4.394  12.432  0.00  0.00    -0.136 SA
ATOM      2  O   UNL d   1      13.461  -5.123  14.573  0.00  0.00    -0.271 OA
ATOM      3  N   UNL d   1      15.760  -5.491  14.562  0.00  0.00    -0.293 N 
ATOM      4  C   UNL d   1      16.376  -5.893  13.297  0.00  0.00     0.187 C 
ATOM      5  CA  UNL d   1      14.964  -6.438  12.896  0.00  0.00     0.211 C 
ATOM      6  C   UNL d   1      14.483  -5.566  14.096  0.00  0.00     0.251 C 
ATOM      7  CA  UNL d   1      16.349  -4.628  15.454  0.00  0.00     0.117 C 
ATOM      8  C   UNL d   1      17.461  -3.920  15.123  0.00  0.00    -0.013 C 
ATOM      9  C   UNL d   1      18.104  -3.951  13.750  0.00  0.00     0.115 C 
ENDROOT
BRANCH   5  10
ATOM     10  N   UNL d   1      14.533  -6.190  11.493  0.00  0.00    -0.339 N 
ATOM     11  C   UNL d   1      13.714  -7.136  10.877  0.00  0.00     0.275 C 
ATOM     12  O   UNL d   1      13.333  -6.997   9.715  0.00  0.00    -0.266 OA
ATOM     13  H   UNL d   1      14.562  -5.257  11.079  0.00  0.00     0.163 HD
BRANCH  11  14
ATOM     14  C   UNL d   1      13.356  -8.391  11.688  0.00  0.00     0.180 C 
ATOM     15  N   UNL d   1      14.092  -9.466  11.766  0.00  0.00    -0.126 NA
BRANCH  15  16
ATOM     16  O   UNL d   1      15.283  -9.407  11.042  0.00  0.00    -0.261 OA
ATOM     17  C   UNL d   1      15.559 -10.723  10.566  0.00  0.00     0.240 C 
ENDBRANCH  15  16
BRANCH  14  18
ATOM     18  C   UNL d   1      12.108  -8.461  12.448  0.00  0.00     0.102 A 
ATOM     19  N   UNL d   1      10.867  -8.261  11.850  0.00  0.00    -0.222 NA
ATOM     20  C   UNL d   1       9.911  -8.451  12.725  0.00  0.00     0.164 A 
ATOM     21  S   UNL d   1      10.419  -8.841  14.315  0.00  0.00    -0.062 SA
ATOM     22  C   UNL d   1      12.044  -8.767  13.799  0.00  0.00     0.087 A 
BRANCH  20  23
ATOM     23  N   UNL d   1       8.610  -8.359  12.421  0.00  0.00    -0.378 N 
ATOM     24  H   UNL d   1       8.057  -7.642  12.873  0.00  0.00     0.158 HD
ATOM     25  H   UNL d   1       8.337  -8.570  11.469  0.00  0.00     0.158 HD
ENDBRANCH  20  23
ENDBRANCH  14  18
ENDBRANCH  11  14
ENDBRANCH   5  10
BRANCH   7  26
ATOM     26  C   UNL d   1      15.814  -4.592  16.869  0.00  0.00     0.194 C 
ATOM     27  OXT UNL d   1      16.245  -5.306  17.765  0.00  0.00    -0.645 OA
BRANCH  26  28
ATOM     28  O   UNL d   1      14.748  -3.795  17.068  0.00  0.00    -0.772 OA
ATOM     29  H   UNL d   1      13.890  -4.132  16.730  0.00  0.00     0.167 HD
ENDBRANCH  26  28
ENDBRANCH   7  26
BRANCH   8  30
ATOM     30  C   UNL d   1      18.166  -2.956  16.061  0.00  0.00     0.216 C 
BRANCH  30  31
ATOM     31  O   UNL d   1      18.447  -1.726  15.380  0.00  0.00    -0.317 OA
BRANCH  31  32
ATOM     32  C   UNL d   1      17.688  -0.656  15.732  0.00  0.00     0.255 C 
ATOM     33  O   UNL d   1      16.591  -0.708  16.272  0.00  0.00    -0.266 OA
ATOM     34  C   UNL d   1      18.394   0.612  15.368  0.00  0.00     0.126 C 
ENDBRANCH  31  32
ENDBRANCH  30  31
ENDBRANCH   8  30
TORSDOF 10
ENDMDL
MODEL 9
REMARK VINA RESULT:      -5.5     28.086     30.049
REMARK  10 active torsions:
REMARK  status: ('A' for Active; 'I' for Inactive)
REMARK    1  A    between atoms: O_4  and  C_21 
REMARK    2  A    between atoms: O_4  and  C_26 
REMARK    3  A    between atoms: O_5  and  C_22 
REMARK    4  A    between atoms: O_8  and  N_12 
REMARK    5  A    between atoms: CA_16  and  N_11 
REMARK       I    between atoms: N_11  and  C_23 
REMARK    6  A    between atoms: N_14  and  C_29 
REMARK    7  A    between atoms: CA_18  and  C_22 
REMARK    8  A    between atoms: C_19  and  C_21 
REMARK    9  A    between atoms: C_23  and  C_24 
REMARK   10  A    between atoms: C_24  and  C_25 
ROOT
ATOM      1  S   UNL d   1      15.575  -6.967  13.957  0.00  0.00    -0.136 SA
ATOM      2  O   UNL d   1      14.878  -9.316  10.603  0.00  0.00    -0.271 OA
ATOM      3  N   UNL d   1      13.850  -8.350  12.456  0.00  0.00    -0.293 N 
ATOM      4  C   UNL d   1      14.539  -8.450  13.742  0.00  0.00     0.187 C 
ATOM      5  CA  UNL d   1      15.246  -9.717  13.154  0.00  0.00     0.211 C 
ATOM      6  C   UNL d   1      14.724  -9.158  11.794  0.00  0.00     0.251 C 
ATOM      7  CA  UNL d   1      13.163  -7.233  12.046  0.00  0.00     0.117 C 
ATOM      8  C   UNL d   1      13.254  -6.059  12.725  0.00  0.00    -0.013 C 
ATOM      9  C   UNL d   1      14.154  -5.846  13.927  0.00  0.00     0.115 C 
ENDROOT
BRANCH   5  10
ATOM     10  N   UNL d   1      16.695  -9.870  13.461  0.00  0.00    -0.339 N 
ATOM     11  C   UNL d   1      17.208 -11.159  13.600  0.00  0.00     0.275 C 
ATOM     12  O   UNL d   1      18.393 -11.354  13.866  0.00  0.00    -0.266 OA
ATOM     13  H   UNL d   1      17.363  -9.117  13.288  0.00  0.00     0.163 HD
BRANCH  11  14
ATOM     14  C   UNL d   1      16.219 -12.328  13.467  0.00  0.00     0.180 C 
ATOM     15  N   UNL d   1      15.408 -12.731  14.406  0.00  0.00    -0.126 NA
BRANCH  15  16
ATOM     16  O   UNL d   1      15.489 -12.004  15.594  0.00  0.00    -0.261 OA
ATOM     17  C   UNL d   1      14.154 -11.748  16.029  0.00  0.00     0.240 C 
ENDBRANCH  15  16
BRANCH  14  18
ATOM     18  C   UNL d   1      16.130 -13.096  12.225  0.00  0.00     0.102 A 
ATOM     19  N   UNL d   1      16.847 -14.274  12.033  0.00  0.00    -0.222 NA
ATOM     20  C   UNL d   1      16.537 -14.805  10.876  0.00  0.00     0.164 A 
ATOM     21  S   UNL d   1      15.408 -13.928   9.930  0.00  0.00    -0.062 SA
ATOM     22  C   UNL d   1      15.309 -12.751  11.162  0.00  0.00     0.087 A 
BRANCH  20  23
ATOM     23  N   UNL d   1      17.048 -15.963  10.439  0.00  0.00    -0.378 N 
ATOM     24  H   UNL d   1      16.678 -16.827  10.814  0.00  0.00     0.158 HD
ATOM     25  H   UNL d   1      17.337 -16.008   9.469  0.00  0.00     0.158 HD
ENDBRANCH  20  23
ENDBRANCH  14  18
ENDBRANCH  11  14
ENDBRANCH   5  10
BRANCH   7  26
ATOM     26  C   UNL d   1      12.186  -7.378  10.900  0.00  0.00     0.194 C 
ATOM     27  OXT UNL d   1      10.997  -7.622  11.061  0.00  0.00    -0.645 OA
BRANCH  26  28
ATOM     28  O   UNL d   1      12.723  -7.331   9.667  0.00  0.00    -0.772 OA
ATOM     29  H   UNL d   1      12.511  -8.086   9.076  0.00  0.00     0.167 HD
ENDBRANCH  26  28
ENDBRANCH   7  26
BRANCH   8  30
ATOM     30  C   UNL d   1      12.517  -4.790  12.332  0.00  0.00     0.216 C 
BRANCH  30  31
ATOM     31  O   UNL d   1      13.444  -3.825  11.817  0.00  0.00    -0.317 OA
BRANCH  31  32
ATOM     32  C   UNL d   1      14.071  -4.153  10.657  0.00  0.00     0.255 C 
ATOM     33  O   UNL d   1      13.526  -4.586   9.651  0.00  0.00    -0.266 OA
ATOM     34  C   UNL d   1      15.541  -3.901  10.783  0.00  0.00     0.126 C 
ENDBRANCH  31  32
ENDBRANCH  30  31
ENDBRANCH   8  30
TORSDOF 10
ENDMDL
