MODEL 1
REMARK VINA RESULT:      -6.9      0.000      0.000
REMARK  10 active torsions:
REMARK  status: ('A' for Active; 'I' for Inactive)
REMARK    1  A    between atoms: O_4  and  C_21 
REMARK    2  A    between atoms: O_4  and  C_26 
REMARK    3  A    between atoms: O_5  and  C_22 
REMARK    4  A    between atoms: O_8  and  N_12 
REMARK    5  A    between atoms: CA_16  and  N_11 
REMARK       I    between atoms: N_11  and  C_23 
REMARK    6  A    between atoms: N_14  and  C_29 
REMARK    7  A    between atoms: CA_18  and  C_22 
REMARK    8  A    between atoms: C_19  and  C_21 
REMARK    9  A    between atoms: C_23  and  C_24 
REMARK   10  A    between atoms: C_24  and  C_25 
ROOT
ATOM      1  S   UNL d   1      39.349  -7.427  -0.626  0.00  0.00    -0.136 SA
ATOM      2  O   UNL d   1      41.142  -7.095  -4.346  0.00  0.00    -0.271 OA
ATOM      3  N   UNL d   1      40.228  -8.603  -2.839  0.00  0.00    -0.293 N 
ATOM      4  C   UNL d   1      40.595  -8.483  -1.435  0.00  0.00     0.187 C 
ATOM      5  CA  UNL d   1      41.910  -7.789  -1.948  0.00  0.00     0.211 C 
ATOM      6  C   UNL d   1      41.083  -7.636  -3.280  0.00  0.00     0.251 C 
ATOM      7  CA  UNL d   1      38.981  -8.965  -3.278  0.00  0.00     0.117 C 
ATOM      8  C   UNL d   1      37.910  -8.991  -2.434  0.00  0.00    -0.013 C 
ATOM      9  C   UNL d   1      37.993  -8.594  -0.971  0.00  0.00     0.115 C 
ENDROOT
BRANCH   5  10
ATOM     10  N   UNL d   1      42.427  -6.660  -1.121  0.00  0.00    -0.339 N 
ATOM     11  C   UNL d   1      43.741  -6.726  -0.621  0.00  0.00     0.275 C 
ATOM     12  O   UNL d   1      44.203  -5.827   0.073  0.00  0.00    -0.266 OA
ATOM     13  H   UNL d   1      41.987  -5.739  -1.153  0.00  0.00     0.163 HD
BRANCH  11  14
ATOM     14  C   UNL d   1      44.553  -8.007  -0.925  0.00  0.00     0.180 C 
ATOM     15  N   UNL d   1      44.822  -8.975  -0.089  0.00  0.00    -0.126 NA
BRANCH  15  16
ATOM     16  O   UNL d   1      44.380  -8.805   1.220  0.00  0.00    -0.261 OA
ATOM     17  C   UNL d   1      45.533  -8.893   2.072  0.00  0.00     0.240 C 
ENDBRANCH  15  16
BRANCH  14  18
ATOM     18  C   UNL d   1      45.167  -8.205  -2.238  0.00  0.00     0.102 A 
ATOM     19  N   UNL d   1      46.069  -7.290  -2.766  0.00  0.00    -0.222 NA
ATOM     20  C   UNL d   1      46.617  -7.776  -3.852  0.00  0.00     0.164 A 
ATOM     21  S   UNL d   1      46.040  -9.308  -4.362  0.00  0.00    -0.062 SA
ATOM     22  C   UNL d   1      45.003  -9.350  -3.005  0.00  0.00     0.087 A 
BRANCH  20  23
ATOM     23  N   UNL d   1      47.592  -7.143  -4.511  0.00  0.00    -0.378 N 
ATOM     24  H   UNL d   1      47.597  -6.134  -4.541  0.00  0.00     0.158 HD
ATOM     25  H   UNL d   1      48.502  -7.586  -4.531  0.00  0.00     0.158 HD
ENDBRANCH  20  23
ENDBRANCH  14  18
ENDBRANCH  11  14
ENDBRANCH   5  10
BRANCH   7  26
ATOM     26  C   UNL d   1      38.859  -9.491  -4.696  0.00  0.00     0.194 C 
ATOM     27  OXT UNL d   1      38.918 -10.676  -4.992  0.00  0.00    -0.645 OA
BRANCH  26  28
ATOM     28  O   UNL d   1      38.827  -8.543  -5.657  0.00  0.00    -0.772 OA
ATOM     29  H   UNL d   1      39.010  -8.863  -6.567  0.00  0.00     0.167 HD
ENDBRANCH  26  28
ENDBRANCH   7  26
BRANCH   8  30
ATOM     30  C   UNL d   1      36.492  -9.329  -2.869  0.00  0.00     0.216 C 
BRANCH  30  31
ATOM     31  O   UNL d   1      35.671  -8.148  -2.826  0.00  0.00    -0.317 OA
BRANCH  31  32
ATOM     32  C   UNL d   1      34.672  -8.075  -3.743  0.00  0.00     0.255 C 
ATOM     33  O   UNL d   1      33.510  -7.781  -3.507  0.00  0.00    -0.266 OA
ATOM     34  C   UNL d   1      35.205  -8.391  -5.107  0.00  0.00     0.126 C 
ENDBRANCH  31  32
ENDBRANCH  30  31
ENDBRANCH   8  30
TORSDOF 10
ENDMDL
MODEL 2
REMARK VINA RESULT:      -6.9      3.517      6.361
REMARK  10 active torsions:
REMARK  status: ('A' for Active; 'I' for Inactive)
REMARK    1  A    between atoms: O_4  and  C_21 
REMARK    2  A    between atoms: O_4  and  C_26 
REMARK    3  A    between atoms: O_5  and  C_22 
REMARK    4  A    between atoms: O_8  and  N_12 
REMARK    5  A    between atoms: CA_16  and  N_11 
REMARK       I    between atoms: N_11  and  C_23 
REMARK    6  A    between atoms: N_14  and  C_29 
REMARK    7  A    between atoms: CA_18  and  C_22 
REMARK    8  A    between atoms: C_19  and  C_21 
REMARK    9  A    between atoms: C_23  and  C_24 
REMARK   10  A    between atoms: C_24  and  C_25 
ROOT
ATOM      1  S   UNL d   1      38.240  -8.109  -3.062  0.00  0.00    -0.136 SA
ATOM      2  O   UNL d   1      42.145  -9.418  -2.616  0.00  0.00    -0.271 OA
ATOM      3  N   UNL d   1      40.812  -7.524  -2.756  0.00  0.00    -0.293 N 
ATOM      4  C   UNL d   1      39.787  -7.478  -3.788  0.00  0.00     0.187 C 
ATOM      5  CA  UNL d   1      40.686  -8.499  -4.578  0.00  0.00     0.211 C 
ATOM      6  C   UNL d   1      41.358  -8.705  -3.169  0.00  0.00     0.251 C 
ATOM      7  CA  UNL d   1      40.661  -6.998  -1.500  0.00  0.00     0.117 C 
ATOM      8  C   UNL d   1      39.438  -6.615  -1.032  0.00  0.00    -0.013 C 
ATOM      9  C   UNL d   1      38.156  -6.768  -1.831  0.00  0.00     0.115 C 
ENDROOT
BRANCH   5  10
ATOM     10  N   UNL d   1      39.966  -9.554  -5.351  0.00  0.00    -0.339 N 
ATOM     11  C   UNL d   1      39.837  -9.410  -6.744  0.00  0.00     0.275 C 
ATOM     12  O   UNL d   1      39.244 -10.245  -7.418  0.00  0.00    -0.266 OA
ATOM     13  H   UNL d   1      39.831 -10.490  -4.965  0.00  0.00     0.163 HD
BRANCH  11  14
ATOM     14  C   UNL d   1      40.414  -8.124  -7.383  0.00  0.00     0.180 C 
ATOM     15  N   UNL d   1      39.824  -6.960  -7.459  0.00  0.00    -0.126 NA
BRANCH  15  16
ATOM     16  O   UNL d   1      38.524  -6.890  -6.967  0.00  0.00    -0.261 OA
ATOM     17  C   UNL d   1      37.667  -6.566  -8.072  0.00  0.00     0.240 C 
ENDBRANCH  15  16
BRANCH  14  18
ATOM     18  C   UNL d   1      41.720  -8.141  -8.041  0.00  0.00     0.102 A 
ATOM     19  N   UNL d   1      42.817  -7.480  -7.503  0.00  0.00    -0.222 NA
ATOM     20  C   UNL d   1      43.901  -7.798  -8.165  0.00  0.00     0.164 A 
ATOM     21  S   UNL d   1      43.680  -8.831  -9.515  0.00  0.00    -0.062 SA
ATOM     22  C   UNL d   1      42.009  -8.897  -9.169  0.00  0.00     0.087 A 
BRANCH  20  23
ATOM     23  N   UNL d   1      45.116  -7.377  -7.800  0.00  0.00    -0.378 N 
ATOM     24  H   UNL d   1      45.918  -7.963  -7.980  0.00  0.00     0.158 HD
ATOM     25  H   UNL d   1      45.288  -6.379  -7.824  0.00  0.00     0.158 HD
ENDBRANCH  20  23
ENDBRANCH  14  18
ENDBRANCH  11  14
ENDBRANCH   5  10
BRANCH   7  26
ATOM     26  C   UNL d   1      41.917  -6.705  -0.702  0.00  0.00     0.194 C 
ATOM     27  OXT UNL d   1      42.529  -5.647  -0.758  0.00  0.00    -0.645 OA
BRANCH  26  28
ATOM     28  O   UNL d   1      42.421  -7.756  -0.020  0.00  0.00    -0.772 OA
ATOM     29  H   UNL d   1      41.758  -8.302   0.456  0.00  0.00     0.167 HD
ENDBRANCH  26  28
ENDBRANCH   7  26
BRANCH   8  30
ATOM     30  C   UNL d   1      39.193  -6.076   0.369  0.00  0.00     0.216 C 
BRANCH  30  31
ATOM     31  O   UNL d   1      39.088  -7.166   1.302  0.00  0.00    -0.317 OA
BRANCH  31  32
ATOM     32  C   UNL d   1      37.874  -7.347   1.885  0.00  0.00     0.255 C 
ATOM     33  O   UNL d   1      36.934  -6.569   1.825  0.00  0.00    -0.266 OA
ATOM     34  C   UNL d   1      37.843  -8.659   2.606  0.00  0.00     0.126 C 
ENDBRANCH  31  32
ENDBRANCH  30  31
ENDBRANCH   8  30
TORSDOF 10
ENDMDL
MODEL 3
REMARK VINA RESULT:      -6.2     21.920     25.496
REMARK  10 active torsions:
REMARK  status: ('A' for Active; 'I' for Inactive)
REMARK    1  A    between atoms: O_4  and  C_21 
REMARK    2  A    between atoms: O_4  and  C_26 
REMARK    3  A    between atoms: O_5  and  C_22 
REMARK    4  A    between atoms: O_8  and  N_12 
REMARK    5  A    between atoms: CA_16  and  N_11 
REMARK       I    between atoms: N_11  and  C_23 
REMARK    6  A    between atoms: N_14  and  C_29 
REMARK    7  A    between atoms: CA_18  and  C_22 
REMARK    8  A    between atoms: C_19  and  C_21 
REMARK    9  A    between atoms: C_23  and  C_24 
REMARK   10  A    between atoms: C_24  and  C_25 
ROOT
ATOM      1  S   UNL d   1      19.197  -5.149 -14.368  0.00  0.00    -0.136 SA
ATOM      2  O   UNL d   1      20.278  -7.541 -11.163  0.00  0.00    -0.271 OA
ATOM      3  N   UNL d   1      20.304  -7.393 -13.478  0.00  0.00    -0.293 N 
ATOM      4  C   UNL d   1      19.091  -6.956 -14.154  0.00  0.00     0.187 C 
ATOM      5  CA  UNL d   1      18.321  -7.491 -12.891  0.00  0.00     0.211 C 
ATOM      6  C   UNL d   1      19.749  -7.434 -12.232  0.00  0.00     0.251 C 
ATOM      7  CA  UNL d   1      21.570  -7.064 -13.885  0.00  0.00     0.117 C 
ATOM      8  C   UNL d   1      21.788  -6.084 -14.810  0.00  0.00    -0.013 C 
ATOM      9  C   UNL d   1      20.672  -5.263 -15.431  0.00  0.00     0.115 C 
ENDROOT
BRANCH   5  10
ATOM     10  N   UNL d   1      17.137  -6.696 -12.452  0.00  0.00    -0.339 N 
ATOM     11  C   UNL d   1      16.088  -7.349 -11.778  0.00  0.00     0.275 C 
ATOM     12  O   UNL d   1      15.091  -6.738 -11.410  0.00  0.00    -0.266 OA
ATOM     13  H   UNL d   1      17.190  -5.681 -12.356  0.00  0.00     0.163 HD
BRANCH  11  14
ATOM     14  C   UNL d   1      16.213  -8.878 -11.582  0.00  0.00     0.180 C 
ATOM     15  N   UNL d   1      16.857  -9.492 -10.625  0.00  0.00    -0.126 NA
BRANCH  15  16
ATOM     16  O   UNL d   1      17.548  -8.684  -9.726  0.00  0.00    -0.261 OA
ATOM     17  C   UNL d   1      18.427  -9.537  -8.977  0.00  0.00     0.240 C 
ENDBRANCH  15  16
BRANCH  14  18
ATOM     18  C   UNL d   1      15.630  -9.803 -12.555  0.00  0.00     0.102 A 
ATOM     19  N   UNL d   1      16.387 -10.797 -13.161  0.00  0.00    -0.222 NA
ATOM     20  C   UNL d   1      15.609 -11.604 -13.838  0.00  0.00     0.164 A 
ATOM     21  S   UNL d   1      13.945 -11.191 -13.868  0.00  0.00    -0.062 SA
ATOM     22  C   UNL d   1      14.278  -9.850 -12.865  0.00  0.00     0.087 A 
BRANCH  20  23
ATOM     23  N   UNL d   1      16.066 -12.705 -14.442  0.00  0.00    -0.378 N 
ATOM     24  H   UNL d   1      16.712 -12.616 -15.212  0.00  0.00     0.158 HD
ATOM     25  H   UNL d   1      16.174 -13.536 -13.873  0.00  0.00     0.158 HD
ENDBRANCH  20  23
ENDBRANCH  14  18
ENDBRANCH  11  14
ENDBRANCH   5  10
BRANCH   7  26
ATOM     26  C   UNL d   1      22.715  -7.931 -13.396  0.00  0.00     0.194 C 
ATOM     27  OXT UNL d   1      23.049  -8.982 -13.925  0.00  0.00    -0.645 OA
BRANCH  26  28
ATOM     28  O   UNL d   1      23.266  -7.544 -12.226  0.00  0.00    -0.772 OA
ATOM     29  H   UNL d   1      24.233  -7.697 -12.148  0.00  0.00     0.167 HD
ENDBRANCH  26  28
ENDBRANCH   7  26
BRANCH   8  30
ATOM     30  C   UNL d   1      23.168  -5.634 -15.263  0.00  0.00     0.216 C 
BRANCH  30  31
ATOM     31  O   UNL d   1      23.499  -4.375 -14.650  0.00  0.00    -0.317 OA
BRANCH  31  32
ATOM     32  C   UNL d   1      24.075  -4.436 -13.421  0.00  0.00     0.255 C 
ATOM     33  O   UNL d   1      24.991  -5.177 -13.100  0.00  0.00    -0.266 OA
ATOM     34  C   UNL d   1      23.432  -3.440 -12.505  0.00  0.00     0.126 C 
ENDBRANCH  31  32
ENDBRANCH  30  31
ENDBRANCH   8  30
TORSDOF 10
ENDMDL
MODEL 4
REMARK VINA RESULT:      -6.1     20.641     23.878
REMARK  10 active torsions:
REMARK  status: ('A' for Active; 'I' for Inactive)
REMARK    1  A    between atoms: O_4  and  C_21 
REMARK    2  A    between atoms: O_4  and  C_26 
REMARK    3  A    between atoms: O_5  and  C_22 
REMARK    4  A    between atoms: O_8  and  N_12 
REMARK    5  A    between atoms: CA_16  and  N_11 
REMARK       I    between atoms: N_11  and  C_23 
REMARK    6  A    between atoms: N_14  and  C_29 
REMARK    7  A    between atoms: CA_18  and  C_22 
REMARK    8  A    between atoms: C_19  and  C_21 
REMARK    9  A    between atoms: C_23  and  C_24 
REMARK   10  A    between atoms: C_24  and  C_25 
ROOT
ATOM      1  S   UNL d   1      21.644  -1.695 -11.809  0.00  0.00    -0.136 SA
ATOM      2  O   UNL d   1      23.149  -5.507 -11.206  0.00  0.00    -0.271 OA
ATOM      3  N   UNL d   1      22.458  -4.005 -12.834  0.00  0.00    -0.293 N 
ATOM      4  C   UNL d   1      21.219  -3.273 -12.615  0.00  0.00     0.187 C 
ATOM      5  CA  UNL d   1      20.800  -4.471 -11.685  0.00  0.00     0.211 C 
ATOM      6  C   UNL d   1      22.341  -4.793 -11.726  0.00  0.00     0.251 C 
ATOM      7  CA  UNL d   1      23.565  -3.475 -13.443  0.00  0.00     0.117 C 
ATOM      8  C   UNL d   1      23.683  -2.134 -13.662  0.00  0.00    -0.013 C 
ATOM      9  C   UNL d   1      22.635  -1.125 -13.227  0.00  0.00     0.115 C 
ENDROOT
BRANCH   5  10
ATOM     10  N   UNL d   1      20.026  -4.117 -10.459  0.00  0.00    -0.339 N 
ATOM     11  C   UNL d   1      18.720  -4.618 -10.309  0.00  0.00     0.275 C 
ATOM     12  O   UNL d   1      18.042  -4.344  -9.325  0.00  0.00    -0.266 OA
ATOM     13  H   UNL d   1      20.497  -3.787  -9.616  0.00  0.00     0.163 HD
BRANCH  11  14
ATOM     14  C   UNL d   1      18.148  -5.471 -11.467  0.00  0.00     0.180 C 
ATOM     15  N   UNL d   1      17.644  -5.026 -12.587  0.00  0.00    -0.126 NA
BRANCH  15  16
ATOM     16  O   UNL d   1      17.564  -3.643 -12.726  0.00  0.00    -0.261 OA
ATOM     17  C   UNL d   1      16.172  -3.292 -12.687  0.00  0.00     0.240 C 
ENDBRANCH  15  16
BRANCH  14  18
ATOM     18  C   UNL d   1      18.072  -6.927 -11.350  0.00  0.00     0.102 A 
ATOM     19  N   UNL d   1      18.523  -7.592 -10.217  0.00  0.00    -0.222 NA
ATOM     20  C   UNL d   1      18.177  -8.855 -10.271  0.00  0.00     0.164 A 
ATOM     21  S   UNL d   1      17.371  -9.351 -11.700  0.00  0.00    -0.062 SA
ATOM     22  C   UNL d   1      17.450  -7.747 -12.281  0.00  0.00     0.087 A 
BRANCH  20  23
ATOM     23  N   UNL d   1      18.401  -9.705  -9.265  0.00  0.00    -0.378 N 
ATOM     24  H   UNL d   1      18.770 -10.623  -9.465  0.00  0.00     0.158 HD
ATOM     25  H   UNL d   1      18.674  -9.308  -8.374  0.00  0.00     0.158 HD
ENDBRANCH  20  23
ENDBRANCH  14  18
ENDBRANCH  11  14
ENDBRANCH   5  10
BRANCH   7  26
ATOM     26  C   UNL d   1      24.587  -4.442 -14.011  0.00  0.00     0.194 C 
ATOM     27  OXT UNL d   1      24.504  -4.947 -15.123  0.00  0.00    -0.645 OA
BRANCH  26  28
ATOM     28  O   UNL d   1      25.544  -4.839 -13.145  0.00  0.00    -0.772 OA
ATOM     29  H   UNL d   1      25.509  -4.414 -12.260  0.00  0.00     0.167 HD
ENDBRANCH  26  28
ENDBRANCH   7  26
BRANCH   8  30
ATOM     30  C   UNL d   1      24.907  -1.477 -14.282  0.00  0.00     0.216 C 
BRANCH  30  31
ATOM     31  O   UNL d   1      25.805  -1.040 -13.247  0.00  0.00    -0.317 OA
BRANCH  31  32
ATOM     32  C   UNL d   1      26.145   0.275 -13.259  0.00  0.00     0.255 C 
ATOM     33  O   UNL d   1      25.361   1.212 -13.290  0.00  0.00    -0.266 OA
ATOM     34  C   UNL d   1      27.635   0.420 -13.210  0.00  0.00     0.126 C 
ENDBRANCH  31  32
ENDBRANCH  30  31
ENDBRANCH   8  30
TORSDOF 10
ENDMDL
MODEL 5
REMARK VINA RESULT:      -5.8      2.968      4.719
REMARK  10 active torsions:
REMARK  status: ('A' for Active; 'I' for Inactive)
REMARK    1  A    between atoms: O_4  and  C_21 
REMARK    2  A    between atoms: O_4  and  C_26 
REMARK    3  A    between atoms: O_5  and  C_22 
REMARK    4  A    between atoms: O_8  and  N_12 
REMARK    5  A    between atoms: CA_16  and  N_11 
REMARK       I    between atoms: N_11  and  C_23 
REMARK    6  A    between atoms: N_14  and  C_29 
REMARK    7  A    between atoms: CA_18  and  C_22 
REMARK    8  A    between atoms: C_19  and  C_21 
REMARK    9  A    between atoms: C_23  and  C_24 
REMARK   10  A    between atoms: C_24  and  C_25 
ROOT
ATOM      1  S   UNL d   1      42.373 -10.340  -4.065  0.00  0.00    -0.136 SA
ATOM      2  O   UNL d   1      44.371  -8.844  -0.759  0.00  0.00    -0.271 OA
ATOM      3  N   UNL d   1      42.980  -8.265  -2.523  0.00  0.00    -0.293 N 
ATOM      4  C   UNL d   1      43.294  -8.783  -3.847  0.00  0.00     0.187 C 
ATOM      5  CA  UNL d   1      44.779  -8.886  -3.339  0.00  0.00     0.211 C 
ATOM      6  C   UNL d   1      44.102  -8.757  -1.923  0.00  0.00     0.251 C 
ATOM      7  CA  UNL d   1      41.706  -8.102  -2.046  0.00  0.00     0.117 C 
ATOM      8  C   UNL d   1      40.632  -8.657  -2.679  0.00  0.00    -0.013 C 
ATOM      9  C   UNL d   1      40.754  -9.516  -3.925  0.00  0.00     0.115 C 
ENDROOT
BRANCH   5  10
ATOM     10  N   UNL d   1      45.561 -10.064  -3.815  0.00  0.00    -0.339 N 
ATOM     11  C   UNL d   1      46.844  -9.858  -4.354  0.00  0.00     0.275 C 
ATOM     12  O   UNL d   1      47.518 -10.794  -4.769  0.00  0.00    -0.266 OA
ATOM     13  H   UNL d   1      45.335 -11.009  -3.500  0.00  0.00     0.163 HD
BRANCH  11  14
ATOM     14  C   UNL d   1      47.342  -8.398  -4.466  0.00  0.00     0.180 C 
ATOM     15  N   UNL d   1      47.908  -7.693  -3.522  0.00  0.00    -0.126 NA
BRANCH  15  16
ATOM     16  O   UNL d   1      48.021  -8.303  -2.275  0.00  0.00    -0.261 OA
ATOM     17  C   UNL d   1      49.417  -8.547  -2.047  0.00  0.00     0.240 C 
ENDBRANCH  15  16
BRANCH  14  18
ATOM     18  C   UNL d   1      47.144  -7.637  -5.699  0.00  0.00     0.102 A 
ATOM     19  N   UNL d   1      45.998  -7.784  -6.471  0.00  0.00    -0.222 NA
ATOM     20  C   UNL d   1      45.968  -6.870  -7.408  0.00  0.00     0.164 A 
ATOM     21  S   UNL d   1      47.330  -5.833  -7.488  0.00  0.00    -0.062 SA
ATOM     22  C   UNL d   1      48.001  -6.637  -6.139  0.00  0.00     0.087 A 
BRANCH  20  23
ATOM     23  N   UNL d   1      44.929  -6.722  -8.235  0.00  0.00    -0.378 N 
ATOM     24  H   UNL d   1      44.086  -6.279  -7.899  0.00  0.00     0.158 HD
ATOM     25  H   UNL d   1      45.134  -6.585  -9.218  0.00  0.00     0.158 HD
ENDBRANCH  20  23
ENDBRANCH  14  18
ENDBRANCH  11  14
ENDBRANCH   5  10
BRANCH   7  26
ATOM     26  C   UNL d   1      41.507  -7.153  -0.879  0.00  0.00     0.194 C 
ATOM     27  OXT UNL d   1      41.930  -6.005  -0.854  0.00  0.00    -0.645 OA
BRANCH  26  28
ATOM     28  O   UNL d   1      40.951  -7.706   0.220  0.00  0.00    -0.772 OA
ATOM     29  H   UNL d   1      41.546  -8.284   0.745  0.00  0.00     0.167 HD
ENDBRANCH  26  28
ENDBRANCH   7  26
BRANCH   8  30
ATOM     30  C   UNL d   1      39.202  -8.560  -2.172  0.00  0.00     0.216 C 
BRANCH  30  31
ATOM     31  O   UNL d   1      38.558  -7.405  -2.738  0.00  0.00    -0.317 OA
BRANCH  31  32
ATOM     32  C   UNL d   1      37.802  -6.660  -1.891  0.00  0.00     0.255 C 
ATOM     33  O   UNL d   1      37.372  -5.539  -2.118  0.00  0.00    -0.266 OA
ATOM     34  C   UNL d   1      37.549  -7.422  -0.626  0.00  0.00     0.126 C 
ENDBRANCH  31  32
ENDBRANCH  30  31
ENDBRANCH   8  30
TORSDOF 10
ENDMDL
MODEL 6
REMARK VINA RESULT:      -5.8      3.600      6.694
REMARK  10 active torsions:
REMARK  status: ('A' for Active; 'I' for Inactive)
REMARK    1  A    between atoms: O_4  and  C_21 
REMARK    2  A    between atoms: O_4  and  C_26 
REMARK    3  A    between atoms: O_5  and  C_22 
REMARK    4  A    between atoms: O_8  and  N_12 
REMARK    5  A    between atoms: CA_16  and  N_11 
REMARK       I    between atoms: N_11  and  C_23 
REMARK    6  A    between atoms: N_14  and  C_29 
REMARK    7  A    between atoms: CA_18  and  C_22 
REMARK    8  A    between atoms: C_19  and  C_21 
REMARK    9  A    between atoms: C_23  and  C_24 
REMARK   10  A    between atoms: C_24  and  C_25 
ROOT
ATOM      1  S   UNL d   1      45.586  -9.444  -4.067  0.00  0.00    -0.136 SA
ATOM      2  O   UNL d   1      47.293  -8.699  -0.366  0.00  0.00    -0.271 OA
ATOM      3  N   UNL d   1      45.928  -7.797  -2.012  0.00  0.00    -0.293 N 
ATOM      4  C   UNL d   1      46.345  -7.927  -3.400  0.00  0.00     0.187 C 
ATOM      5  CA  UNL d   1      47.811  -8.038  -2.839  0.00  0.00     0.211 C 
ATOM      6  C   UNL d   1      47.066  -8.335  -1.484  0.00  0.00     0.251 C 
ATOM      7  CA  UNL d   1      44.626  -7.868  -1.592  0.00  0.00     0.117 C 
ATOM      8  C   UNL d   1      43.637  -8.324  -2.414  0.00  0.00    -0.013 C 
ATOM      9  C   UNL d   1      43.892  -8.819  -3.827  0.00  0.00     0.115 C 
ENDROOT
BRANCH   5  10
ATOM     10  N   UNL d   1      48.721  -8.985  -3.548  0.00  0.00    -0.339 N 
ATOM     11  C   UNL d   1      49.707  -8.468  -4.408  0.00  0.00     0.275 C 
ATOM     12  O   UNL d   1      50.468  -9.208  -5.020  0.00  0.00    -0.266 OA
ATOM     13  H   UNL d   1      48.850  -9.941  -3.213  0.00  0.00     0.163 HD
BRANCH  11  14
ATOM     14  C   UNL d   1      49.746  -6.934  -4.605  0.00  0.00     0.180 C 
ATOM     15  N   UNL d   1      50.252  -6.056  -3.780  0.00  0.00    -0.126 NA
BRANCH  15  16
ATOM     16  O   UNL d   1      50.755  -6.550  -2.579  0.00  0.00    -0.261 OA
ATOM     17  C   UNL d   1      52.028  -5.922  -2.361  0.00  0.00     0.240 C 
ENDBRANCH  15  16
BRANCH  14  18
ATOM     18  C   UNL d   1      49.123  -6.318  -5.776  0.00  0.00     0.102 A 
ATOM     19  N   UNL d   1      47.863  -6.702  -6.218  0.00  0.00    -0.222 NA
ATOM     20  C   UNL d   1      47.447  -5.885  -7.153  0.00  0.00     0.164 A 
ATOM     21  S   UNL d   1      48.553  -4.663  -7.627  0.00  0.00    -0.062 SA
ATOM     22  C   UNL d   1      49.663  -5.240  -6.464  0.00  0.00     0.087 A 
BRANCH  20  23
ATOM     23  N   UNL d   1      46.226  -5.966  -7.689  0.00  0.00    -0.378 N 
ATOM     24  H   UNL d   1      45.617  -5.161  -7.661  0.00  0.00     0.158 HD
ATOM     25  H   UNL d   1      46.111  -6.574  -8.491  0.00  0.00     0.158 HD
ENDBRANCH  20  23
ENDBRANCH  14  18
ENDBRANCH  11  14
ENDBRANCH   5  10
BRANCH   7  26
ATOM     26  C   UNL d   1      44.289  -7.272  -0.238  0.00  0.00     0.194 C 
ATOM     27  OXT UNL d   1      44.130  -6.075  -0.039  0.00  0.00    -0.645 OA
BRANCH  26  28
ATOM     28  O   UNL d   1      44.318  -8.143   0.794  0.00  0.00    -0.772 OA
ATOM     29  H   UNL d   1      44.841  -8.960   0.637  0.00  0.00     0.167 HD
ENDBRANCH  26  28
ENDBRANCH   7  26
BRANCH   8  30
ATOM     30  C   UNL d   1      42.184  -8.479  -1.993  0.00  0.00     0.216 C 
BRANCH  30  31
ATOM     31  O   UNL d   1      41.510  -7.210  -2.082  0.00  0.00    -0.317 OA
BRANCH  31  32
ATOM     32  C   UNL d   1      40.545  -6.974  -1.155  0.00  0.00     0.255 C 
ATOM     33  O   UNL d   1      40.738  -6.725   0.025  0.00  0.00    -0.266 OA
ATOM     34  C   UNL d   1      39.193  -7.044  -1.795  0.00  0.00     0.126 C 
ENDBRANCH  31  32
ENDBRANCH  30  31
ENDBRANCH   8  30
TORSDOF 10
ENDMDL
MODEL 7
REMARK VINA RESULT:      -5.7     18.622     21.420
REMARK  10 active torsions:
REMARK  status: ('A' for Active; 'I' for Inactive)
REMARK    1  A    between atoms: O_4  and  C_21 
REMARK    2  A    between atoms: O_4  and  C_26 
REMARK    3  A    between atoms: O_5  and  C_22 
REMARK    4  A    between atoms: O_8  and  N_12 
REMARK    5  A    between atoms: CA_16  and  N_11 
REMARK       I    between atoms: N_11  and  C_23 
REMARK    6  A    between atoms: N_14  and  C_29 
REMARK    7  A    between atoms: CA_18  and  C_22 
REMARK    8  A    between atoms: C_19  and  C_21 
REMARK    9  A    between atoms: C_23  and  C_24 
REMARK   10  A    between atoms: C_24  and  C_25 
ROOT
ATOM      1  S   UNL d   1      23.777   1.212 -13.654  0.00  0.00    -0.136 SA
ATOM      2  O   UNL d   1      24.875  -2.369 -15.424  0.00  0.00    -0.271 OA
ATOM      3  N   UNL d   1      25.038  -1.118 -13.477  0.00  0.00    -0.293 N 
ATOM      4  C   UNL d   1      25.353   0.299 -13.592  0.00  0.00     0.187 C 
ATOM      5  CA  UNL d   1      26.029  -0.072 -14.963  0.00  0.00     0.211 C 
ATOM      6  C   UNL d   1      25.186  -1.392 -14.805  0.00  0.00     0.251 C 
ATOM      7  CA  UNL d   1      24.182  -1.640 -12.544  0.00  0.00     0.117 C 
ATOM      8  C   UNL d   1      23.353  -0.840 -11.812  0.00  0.00    -0.013 C 
ATOM      9  C   UNL d   1      23.282   0.666 -11.988  0.00  0.00     0.115 C 
ENDROOT
BRANCH   5  10
ATOM     10  N   UNL d   1      25.876   0.922 -16.066  0.00  0.00    -0.339 N 
ATOM     11  C   UNL d   1      26.769   0.879 -17.153  0.00  0.00     0.275 C 
ATOM     12  O   UNL d   1      26.688   1.682 -18.075  0.00  0.00    -0.266 OA
ATOM     13  H   UNL d   1      24.996   1.421 -16.207  0.00  0.00     0.163 HD
BRANCH  11  14
ATOM     14  C   UNL d   1      27.897  -0.178 -17.103  0.00  0.00     0.180 C 
ATOM     15  N   UNL d   1      27.831  -1.410 -17.535  0.00  0.00    -0.126 NA
BRANCH  15  16
ATOM     16  O   UNL d   1      26.601  -1.826 -18.039  0.00  0.00    -0.261 OA
ATOM     17  C   UNL d   1      26.796  -3.127 -18.613  0.00  0.00     0.240 C 
ENDBRANCH  15  16
BRANCH  14  18
ATOM     18  C   UNL d   1      29.180   0.132 -16.472  0.00  0.00     0.102 A 
ATOM     19  N   UNL d   1      29.599  -0.516 -15.317  0.00  0.00    -0.222 NA
ATOM     20  C   UNL d   1      30.845  -0.207 -15.056  0.00  0.00     0.164 A 
ATOM     21  S   UNL d   1      31.571   0.932 -16.111  0.00  0.00    -0.062 SA
ATOM     22  C   UNL d   1      30.124   0.991 -17.016  0.00  0.00     0.087 A 
BRANCH  20  23
ATOM     23  N   UNL d   1      31.530  -0.765 -14.053  0.00  0.00    -0.378 N 
ATOM     24  H   UNL d   1      31.341  -1.722 -13.795  0.00  0.00     0.158 HD
ATOM     25  H   UNL d   1      32.485  -0.454 -13.915  0.00  0.00     0.158 HD
ENDBRANCH  20  23
ENDBRANCH  14  18
ENDBRANCH  11  14
ENDBRANCH   5  10
BRANCH   7  26
ATOM     26  C   UNL d   1      24.295  -3.121 -12.234  0.00  0.00     0.194 C 
ATOM     27  OXT UNL d   1      23.587  -3.980 -12.743  0.00  0.00    -0.645 OA
BRANCH  26  28
ATOM     28  O   UNL d   1      25.142  -3.433 -11.230  0.00  0.00    -0.772 OA
ATOM     29  H   UNL d   1      25.981  -3.860 -11.509  0.00  0.00     0.167 HD
ENDBRANCH  26  28
ENDBRANCH   7  26
BRANCH   8  30
ATOM     30  C   UNL d   1      22.341  -1.360 -10.802  0.00  0.00     0.216 C 
BRANCH  30  31
ATOM     31  O   UNL d   1      21.008  -1.030 -11.230  0.00  0.00    -0.317 OA
BRANCH  31  32
ATOM     32  C   UNL d   1      20.454  -1.850 -12.161  0.00  0.00     0.255 C 
ATOM     33  O   UNL d   1      20.381  -3.067 -12.084  0.00  0.00    -0.266 OA
ATOM     34  C   UNL d   1      19.920  -1.040 -13.303  0.00  0.00     0.126 C 
ENDBRANCH  31  32
ENDBRANCH  30  31
ENDBRANCH   8  30
TORSDOF 10
ENDMDL
MODEL 8
REMARK VINA RESULT:      -5.6      2.160      3.141
REMARK  10 active torsions:
REMARK  status: ('A' for Active; 'I' for Inactive)
REMARK    1  A    between atoms: O_4  and  C_21 
REMARK    2  A    between atoms: O_4  and  C_26 
REMARK    3  A    between atoms: O_5  and  C_22 
REMARK    4  A    between atoms: O_8  and  N_12 
REMARK    5  A    between atoms: CA_16  and  N_11 
REMARK       I    between atoms: N_11  and  C_23 
REMARK    6  A    between atoms: N_14  and  C_29 
REMARK    7  A    between atoms: CA_18  and  C_22 
REMARK    8  A    between atoms: C_19  and  C_21 
REMARK    9  A    between atoms: C_23  and  C_24 
REMARK   10  A    between atoms: C_24  and  C_25 
ROOT
ATOM      1  S   UNL d   1      39.806  -7.739  -1.826  0.00  0.00    -0.136 SA
ATOM      2  O   UNL d   1      41.934  -8.097  -5.363  0.00  0.00    -0.271 OA
ATOM      3  N   UNL d   1      40.620  -9.260  -3.845  0.00  0.00    -0.293 N 
ATOM      4  C   UNL d   1      40.884  -9.081  -2.425  0.00  0.00     0.187 C 
ATOM      5  CA  UNL d   1      42.348  -8.696  -2.854  0.00  0.00     0.211 C 
ATOM      6  C   UNL d   1      41.682  -8.516  -4.270  0.00  0.00     0.251 C 
ATOM      7  CA  UNL d   1      39.368  -9.420  -4.378  0.00  0.00     0.117 C 
ATOM      8  C   UNL d   1      38.245  -9.165  -3.646  0.00  0.00    -0.013 C 
ATOM      9  C   UNL d   1      38.282  -8.657  -2.216  0.00  0.00     0.115 C 
ENDROOT
BRANCH   5  10
ATOM     10  N   UNL d   1      43.005  -7.612  -2.067  0.00  0.00    -0.339 N 
ATOM     11  C   UNL d   1      44.368  -7.737  -1.740  0.00  0.00     0.275 C 
ATOM     12  O   UNL d   1      44.946  -6.877  -1.085  0.00  0.00    -0.266 OA
ATOM     13  H   UNL d   1      42.598  -6.677  -2.017  0.00  0.00     0.163 HD
BRANCH  11  14
ATOM     14  C   UNL d   1      45.090  -9.032  -2.182  0.00  0.00     0.180 C 
ATOM     15  N   UNL d   1      45.574  -9.289  -3.368  0.00  0.00    -0.126 NA
BRANCH  15  16
ATOM     16  O   UNL d   1      45.367  -8.320  -4.346  0.00  0.00    -0.261 OA
ATOM     17  C   UNL d   1      46.125  -8.712  -5.500  0.00  0.00     0.240 C 
ENDBRANCH  15  16
BRANCH  14  18
ATOM     18  C   UNL d   1      45.233 -10.155  -1.256  0.00  0.00     0.102 A 
ATOM     19  N   UNL d   1      44.837 -11.441  -1.602  0.00  0.00    -0.222 NA
ATOM     20  C   UNL d   1      45.237 -12.295  -0.693  0.00  0.00     0.164 A 
ATOM     21  S   UNL d   1      46.033 -11.622   0.668  0.00  0.00    -0.062 SA
ATOM     22  C   UNL d   1      45.870 -10.069  -0.026  0.00  0.00     0.087 A 
BRANCH  20  23
ATOM     23  N   UNL d   1      45.072 -13.614  -0.823  0.00  0.00    -0.378 N 
ATOM     24  H   UNL d   1      45.442 -14.083  -1.637  0.00  0.00     0.158 HD
ATOM     25  H   UNL d   1      45.050 -14.165   0.028  0.00  0.00     0.158 HD
ENDBRANCH  20  23
ENDBRANCH  14  18
ENDBRANCH  11  14
ENDBRANCH   5  10
BRANCH   7  26
ATOM     26  C   UNL d   1      39.264 -10.043  -5.758  0.00  0.00     0.194 C 
ATOM     27  OXT UNL d   1      39.258 -11.249  -5.963  0.00  0.00    -0.645 OA
BRANCH  26  28
ATOM     28  O   UNL d   1      39.327  -9.171  -6.786  0.00  0.00    -0.772 OA
ATOM     29  H   UNL d   1      39.522  -9.570  -7.662  0.00  0.00     0.167 HD
ENDBRANCH  26  28
ENDBRANCH   7  26
BRANCH   8  30
ATOM     30  C   UNL d   1      36.830  -9.270  -4.194  0.00  0.00     0.216 C 
BRANCH  30  31
ATOM     31  O   UNL d   1      35.962  -8.369  -3.484  0.00  0.00    -0.317 OA
BRANCH  31  32
ATOM     32  C   UNL d   1      34.794  -8.048  -4.098  0.00  0.00     0.255 C 
ATOM     33  O   UNL d   1      33.745  -7.776  -3.534  0.00  0.00    -0.266 OA
ATOM     34  C   UNL d   1      34.977  -8.057  -5.585  0.00  0.00     0.126 C 
ENDBRANCH  31  32
ENDBRANCH  30  31
ENDBRANCH   8  30
TORSDOF 10
ENDMDL
MODEL 9
REMARK VINA RESULT:      -5.6     31.975     35.144
REMARK  10 active torsions:
REMARK  status: ('A' for Active; 'I' for Inactive)
REMARK    1  A    between atoms: O_4  and  C_21 
REMARK    2  A    between atoms: O_4  and  C_26 
REMARK    3  A    between atoms: O_5  and  C_22 
REMARK    4  A    between atoms: O_8  and  N_12 
REMARK    5  A    between atoms: CA_16  and  N_11 
REMARK       I    between atoms: N_11  and  C_23 
REMARK    6  A    between atoms: N_14  and  C_29 
REMARK    7  A    between atoms: CA_18  and  C_22 
REMARK    8  A    between atoms: C_19  and  C_21 
REMARK    9  A    between atoms: C_23  and  C_24 
REMARK   10  A    between atoms: C_24  and  C_25 
ROOT
ATOM      1  S   UNL d   1      12.310  12.314   4.490  0.00  0.00    -0.136 SA
ATOM      2  O   UNL d   1      10.461  11.300   0.924  0.00  0.00    -0.271 OA
ATOM      3  N   UNL d   1      11.482  10.427   2.816  0.00  0.00    -0.293 N 
ATOM      4  C   UNL d   1      12.728  11.030   3.267  0.00  0.00     0.187 C 
ATOM      5  CA  UNL d   1      12.923  11.487   1.775  0.00  0.00     0.211 C 
ATOM      6  C   UNL d   1      11.384  11.169   1.675  0.00  0.00     0.251 C 
ATOM      7  CA  UNL d   1      10.513   9.946   3.657  0.00  0.00     0.117 C 
ATOM      8  C   UNL d   1      10.526  10.229   4.992  0.00  0.00    -0.013 C 
ATOM      9  C   UNL d   1      11.572  11.114   5.645  0.00  0.00     0.115 C 
ENDROOT
BRANCH   5  10
ATOM     10  N   UNL d   1      13.541  12.830   1.570  0.00  0.00    -0.339 N 
ATOM     11  C   UNL d   1      14.580  12.967   0.631  0.00  0.00     0.275 C 
ATOM     12  O   UNL d   1      15.124  14.048   0.439  0.00  0.00    -0.266 OA
ATOM     13  H   UNL d   1      13.055  13.682   1.853  0.00  0.00     0.163 HD
BRANCH  11  14
ATOM     14  C   UNL d   1      15.053  11.687  -0.097  0.00  0.00     0.180 C 
ATOM     15  N   UNL d   1      15.901  10.801   0.355  0.00  0.00    -0.126 NA
BRANCH  15  16
ATOM     16  O   UNL d   1      16.477  11.069   1.594  0.00  0.00    -0.261 OA
ATOM     17  C   UNL d   1      16.262   9.916   2.421  0.00  0.00     0.240 C 
ENDBRANCH  15  16
BRANCH  14  18
ATOM     18  C   UNL d   1      14.601  11.395  -1.457  0.00  0.00     0.102 A 
ATOM     19  N   UNL d   1      14.289  10.102  -1.860  0.00  0.00    -0.222 NA
ATOM     20  C   UNL d   1      13.734  10.123  -3.046  0.00  0.00     0.164 A 
ATOM     21  S   UNL d   1      13.621  11.662  -3.794  0.00  0.00    -0.062 SA
ATOM     22  C   UNL d   1      14.332  12.367  -2.410  0.00  0.00     0.087 A 
BRANCH  20  23
ATOM     23  N   UNL d   1      13.249   9.025  -3.633  0.00  0.00    -0.378 N 
ATOM     24  H   UNL d   1      13.646   8.125  -3.407  0.00  0.00     0.158 HD
ATOM     25  H   UNL d   1      12.263   9.022  -3.869  0.00  0.00     0.158 HD
ENDBRANCH  20  23
ENDBRANCH  14  18
ENDBRANCH  11  14
ENDBRANCH   5  10
BRANCH   7  26
ATOM     26  C   UNL d   1       9.514   8.956   3.089  0.00  0.00     0.194 C 
ATOM     27  OXT UNL d   1       9.697   7.747   3.050  0.00  0.00    -0.645 OA
BRANCH  26  28
ATOM     28  O   UNL d   1       8.445   9.510   2.477  0.00  0.00    -0.772 OA
ATOM     29  H   UNL d   1       7.922   8.898   1.913  0.00  0.00     0.167 HD
ENDBRANCH  26  28
ENDBRANCH   7  26
BRANCH   8  30
ATOM     30  C   UNL d   1       9.453   9.773   5.969  0.00  0.00     0.216 C 
BRANCH  30  31
ATOM     31  O   UNL d   1      10.041   9.511   7.255  0.00  0.00    -0.317 OA
BRANCH  31  32
ATOM     32  C   UNL d   1       9.459   8.532   7.996  0.00  0.00     0.255 C 
ATOM     33  O   UNL d   1       9.616   8.359   9.195  0.00  0.00    -0.266 OA
ATOM     34  C   UNL d   1       8.570   7.694   7.129  0.00  0.00     0.126 C 
ENDBRANCH  31  32
ENDBRANCH  30  31
ENDBRANCH   8  30
TORSDOF 10
ENDMDL
