MODEL 1
REMARK VINA RESULT:      -7.1      0.000      0.000
REMARK  10 active torsions:
REMARK  status: ('A' for Active; 'I' for Inactive)
REMARK    1  A    between atoms: O_4  and  C_21 
REMARK    2  A    between atoms: O_4  and  C_26 
REMARK    3  A    between atoms: O_5  and  C_22 
REMARK    4  A    between atoms: O_8  and  N_12 
REMARK    5  A    between atoms: CA_16  and  N_11 
REMARK       I    between atoms: N_11  and  C_23 
REMARK    6  A    between atoms: N_14  and  C_29 
REMARK    7  A    between atoms: CA_18  and  C_22 
REMARK    8  A    between atoms: C_19  and  C_21 
REMARK    9  A    between atoms: C_23  and  C_24 
REMARK   10  A    between atoms: C_24  and  C_25 
ROOT
ATOM      1  S   UNL d   1      39.170  -6.577  -0.997  0.00  0.00    -0.136 SA
ATOM      2  O   UNL d   1      41.681  -7.420  -4.182  0.00  0.00    -0.271 OA
ATOM      3  N   UNL d   1      40.164  -8.367  -2.693  0.00  0.00    -0.293 N 
ATOM      4  C   UNL d   1      40.277  -7.990  -1.288  0.00  0.00     0.187 C 
ATOM      5  CA  UNL d   1      41.789  -7.677  -1.604  0.00  0.00     0.211 C 
ATOM      6  C   UNL d   1      41.298  -7.700  -3.080  0.00  0.00     0.251 C 
ATOM      7  CA  UNL d   1      38.976  -8.568  -3.352  0.00  0.00     0.117 C 
ATOM      8  C   UNL d   1      37.789  -8.203  -2.796  0.00  0.00    -0.013 C 
ATOM      9  C   UNL d   1      37.677  -7.519  -1.446  0.00  0.00     0.115 C 
ENDROOT
BRANCH   5  10
ATOM     10  N   UNL d   1      42.417  -6.490  -0.923  0.00  0.00    -0.339 N 
ATOM     11  C   UNL d   1      43.725  -6.663  -0.480  0.00  0.00     0.275 C 
ATOM     12  O   UNL d   1      44.308  -5.746   0.100  0.00  0.00    -0.266 OA
ATOM     13  H   UNL d   1      42.020  -5.557  -0.944  0.00  0.00     0.163 HD
BRANCH  11  14
ATOM     14  C   UNL d   1      44.497  -7.963  -0.712  0.00  0.00     0.180 C 
ATOM     15  N   UNL d   1      44.800  -8.898   0.142  0.00  0.00    -0.126 NA
BRANCH  15  16
ATOM     16  O   UNL d   1      44.366  -8.729   1.454  0.00  0.00    -0.261 OA
ATOM     17  C   UNL d   1      45.488  -9.056   2.293  0.00  0.00     0.240 C 
ENDBRANCH  15  16
BRANCH  14  18
ATOM     18  C   UNL d   1      45.094  -8.157  -2.039  0.00  0.00     0.102 A 
ATOM     19  N   UNL d   1      46.032  -7.271  -2.556  0.00  0.00    -0.222 NA
ATOM     20  C   UNL d   1      46.530  -7.738  -3.673  0.00  0.00     0.164 A 
ATOM     21  S   UNL d   1      45.839  -9.200  -4.239  0.00  0.00    -0.062 SA
ATOM     22  C   UNL d   1      44.837  -9.249  -2.854  0.00  0.00     0.087 A 
BRANCH  20  23
ATOM     23  N   UNL d   1      47.518  -7.127  -4.338  0.00  0.00    -0.378 N 
ATOM     24  H   UNL d   1      48.206  -6.584  -3.834  0.00  0.00     0.158 HD
ATOM     25  H   UNL d   1      47.836  -7.565  -5.195  0.00  0.00     0.158 HD
ENDBRANCH  20  23
ENDBRANCH  14  18
ENDBRANCH  11  14
ENDBRANCH   5  10
BRANCH   7  26
ATOM     26  C   UNL d   1      39.002  -9.342  -4.657  0.00  0.00     0.194 C 
ATOM     27  OXT UNL d   1      38.810 -10.548  -4.736  0.00  0.00    -0.645 OA
BRANCH  26  28
ATOM     28  O   UNL d   1      39.391  -8.637  -5.738  0.00  0.00    -0.772 OA
ATOM     29  H   UNL d   1      39.688  -9.175  -6.505  0.00  0.00     0.167 HD
ENDBRANCH  26  28
ENDBRANCH   7  26
BRANCH   8  30
ATOM     30  C   UNL d   1      36.439  -8.365  -3.479  0.00  0.00     0.216 C 
BRANCH  30  31
ATOM     31  O   UNL d   1      35.451  -8.779  -2.521  0.00  0.00    -0.317 OA
BRANCH  31  32
ATOM     32  C   UNL d   1      34.223  -9.084  -3.014  0.00  0.00     0.255 C 
ATOM     33  O   UNL d   1      33.287  -9.530  -2.365  0.00  0.00    -0.266 OA
ATOM     34  C   UNL d   1      34.168  -8.784  -4.480  0.00  0.00     0.126 C 
ENDBRANCH  31  32
ENDBRANCH  30  31
ENDBRANCH   8  30
TORSDOF 10
ENDMDL
MODEL 2
REMARK VINA RESULT:      -7.1      4.116      7.149
REMARK  10 active torsions:
REMARK  status: ('A' for Active; 'I' for Inactive)
REMARK    1  A    between atoms: O_4  and  C_21 
REMARK    2  A    between atoms: O_4  and  C_26 
REMARK    3  A    between atoms: O_5  and  C_22 
REMARK    4  A    between atoms: O_8  and  N_12 
REMARK    5  A    between atoms: CA_16  and  N_11 
REMARK       I    between atoms: N_11  and  C_23 
REMARK    6  A    between atoms: N_14  and  C_29 
REMARK    7  A    between atoms: CA_18  and  C_22 
REMARK    8  A    between atoms: C_19  and  C_21 
REMARK    9  A    between atoms: C_23  and  C_24 
REMARK   10  A    between atoms: C_24  and  C_25 
ROOT
ATOM      1  S   UNL d   1      37.505  -9.165  -2.915  0.00  0.00    -0.136 SA
ATOM      2  O   UNL d   1      41.626  -8.784  -2.727  0.00  0.00    -0.271 OA
ATOM      3  N   UNL d   1      39.629  -7.595  -2.608  0.00  0.00    -0.293 N 
ATOM      4  C   UNL d   1      38.608  -7.895  -3.607  0.00  0.00     0.187 C 
ATOM      5  CA  UNL d   1      39.797  -8.382  -4.520  0.00  0.00     0.211 C 
ATOM      6  C   UNL d   1      40.583  -8.398  -3.178  0.00  0.00     0.251 C 
ATOM      7  CA  UNL d   1      39.370  -7.312  -1.290  0.00  0.00     0.117 C 
ATOM      8  C   UNL d   1      38.137  -7.517  -0.752  0.00  0.00    -0.013 C 
ATOM      9  C   UNL d   1      36.975  -8.103  -1.534  0.00  0.00     0.115 C 
ENDROOT
BRANCH   5  10
ATOM     10  N   UNL d   1      39.561  -9.584  -5.396  0.00  0.00    -0.339 N 
ATOM     11  C   UNL d   1      39.615  -9.358  -6.768  0.00  0.00     0.275 C 
ATOM     12  O   UNL d   1      39.421 -10.285  -7.556  0.00  0.00    -0.266 OA
ATOM     13  H   UNL d   1      39.558 -10.537  -5.051  0.00  0.00     0.163 HD
BRANCH  11  14
ATOM     14  C   UNL d   1      39.942  -7.983  -7.354  0.00  0.00     0.180 C 
ATOM     15  N   UNL d   1      41.083  -7.358  -7.386  0.00  0.00    -0.126 NA
BRANCH  15  16
ATOM     16  O   UNL d   1      42.182  -8.007  -6.830  0.00  0.00    -0.261 OA
ATOM     17  C   UNL d   1      43.252  -7.872  -7.783  0.00  0.00     0.240 C 
ENDBRANCH  15  16
BRANCH  14  18
ATOM     18  C   UNL d   1      38.815  -7.182  -7.847  0.00  0.00     0.102 A 
ATOM     19  N   UNL d   1      37.908  -6.584  -6.980  0.00  0.00    -0.222 NA
ATOM     20  C   UNL d   1      37.095  -5.802  -7.643  0.00  0.00     0.164 A 
ATOM     21  S   UNL d   1      37.281  -5.810  -9.347  0.00  0.00    -0.062 SA
ATOM     22  C   UNL d   1      38.591  -6.899  -9.185  0.00  0.00     0.087 A 
BRANCH  20  23
ATOM     23  N   UNL d   1      36.176  -5.034  -7.044  0.00  0.00    -0.378 N 
ATOM     24  H   UNL d   1      35.985  -5.150  -6.059  0.00  0.00     0.158 HD
ATOM     25  H   UNL d   1      36.041  -4.101  -7.417  0.00  0.00     0.158 HD
ENDBRANCH  20  23
ENDBRANCH  14  18
ENDBRANCH  11  14
ENDBRANCH   5  10
BRANCH   7  26
ATOM     26  C   UNL d   1      40.452  -6.626  -0.477  0.00  0.00     0.194 C 
ATOM     27  OXT UNL d   1      40.513  -5.415  -0.310  0.00  0.00    -0.645 OA
BRANCH  26  28
ATOM     28  O   UNL d   1      41.447  -7.428  -0.048  0.00  0.00    -0.772 OA
ATOM     29  H   UNL d   1      41.759  -8.096  -0.698  0.00  0.00     0.167 HD
ENDBRANCH  26  28
ENDBRANCH   7  26
BRANCH   8  30
ATOM     30  C   UNL d   1      37.785  -7.258   0.706  0.00  0.00     0.216 C 
BRANCH  30  31
ATOM     31  O   UNL d   1      38.095  -8.416   1.498  0.00  0.00    -0.317 OA
BRANCH  31  32
ATOM     32  C   UNL d   1      38.234  -8.214   2.834  0.00  0.00     0.255 C 
ATOM     33  O   UNL d   1      39.200  -7.697   3.377  0.00  0.00    -0.266 OA
ATOM     34  C   UNL d   1      37.019  -8.706   3.558  0.00  0.00     0.126 C 
ENDBRANCH  31  32
ENDBRANCH  30  31
ENDBRANCH   8  30
TORSDOF 10
ENDMDL
MODEL 3
REMARK VINA RESULT:      -6.5     18.667     21.412
REMARK  10 active torsions:
REMARK  status: ('A' for Active; 'I' for Inactive)
REMARK    1  A    between atoms: O_4  and  C_21 
REMARK    2  A    between atoms: O_4  and  C_26 
REMARK    3  A    between atoms: O_5  and  C_22 
REMARK    4  A    between atoms: O_8  and  N_12 
REMARK    5  A    between atoms: CA_16  and  N_11 
REMARK       I    between atoms: N_11  and  C_23 
REMARK    6  A    between atoms: N_14  and  C_29 
REMARK    7  A    between atoms: CA_18  and  C_22 
REMARK    8  A    between atoms: C_19  and  C_21 
REMARK    9  A    between atoms: C_23  and  C_24 
REMARK   10  A    between atoms: C_24  and  C_25 
ROOT
ATOM      1  S   UNL d   1      28.112   0.451 -17.542  0.00  0.00    -0.136 SA
ATOM      2  O   UNL d   1      27.471   0.319 -13.452  0.00  0.00    -0.271 OA
ATOM      3  N   UNL d   1      28.908  -0.377 -15.145  0.00  0.00    -0.293 N 
ATOM      4  C   UNL d   1      28.305  -0.916 -16.359  0.00  0.00     0.187 C 
ATOM      5  CA  UNL d   1      27.066  -1.277 -15.455  0.00  0.00     0.211 C 
ATOM      6  C   UNL d   1      27.721  -0.270 -14.467  0.00  0.00     0.251 C 
ATOM      7  CA  UNL d   1      30.028   0.418 -15.118  0.00  0.00     0.117 C 
ATOM      8  C   UNL d   1      30.537   0.961 -16.257  0.00  0.00    -0.013 C 
ATOM      9  C   UNL d   1      29.902   0.774 -17.624  0.00  0.00     0.115 C 
ENDROOT
BRANCH   5  10
ATOM     10  N   UNL d   1      25.692  -1.127 -16.054  0.00  0.00    -0.339 N 
ATOM     11  C   UNL d   1      24.835  -2.211 -15.892  0.00  0.00     0.275 C 
ATOM     12  O   UNL d   1      23.697  -2.176 -16.364  0.00  0.00    -0.266 OA
ATOM     13  H   UNL d   1      25.318  -0.245 -16.385  0.00  0.00     0.163 HD
BRANCH  11  14
ATOM     14  C   UNL d   1      25.243  -3.461 -15.111  0.00  0.00     0.180 C 
ATOM     15  N   UNL d   1      26.017  -4.441 -15.482  0.00  0.00    -0.126 NA
BRANCH  15  16
ATOM     16  O   UNL d   1      26.575  -4.366 -16.755  0.00  0.00    -0.261 OA
ATOM     17  C   UNL d   1      27.400  -5.536 -16.900  0.00  0.00     0.240 C 
ENDBRANCH  15  16
BRANCH  14  18
ATOM     18  C   UNL d   1      24.599  -3.676 -13.810  0.00  0.00     0.102 A 
ATOM     19  N   UNL d   1      24.370  -2.629 -12.926  0.00  0.00    -0.222 NA
ATOM     20  C   UNL d   1      23.648  -3.039 -11.914  0.00  0.00     0.164 A 
ATOM     21  S   UNL d   1      23.290  -4.715 -11.888  0.00  0.00    -0.062 SA
ATOM     22  C   UNL d   1      24.111  -4.900 -13.377  0.00  0.00     0.087 A 
BRANCH  20  23
ATOM     23  N   UNL d   1      23.206  -2.215 -10.956  0.00  0.00    -0.378 N 
ATOM     24  H   UNL d   1      22.437  -2.496 -10.363  0.00  0.00     0.158 HD
ATOM     25  H   UNL d   1      23.883  -1.586 -10.540  0.00  0.00     0.158 HD
ENDBRANCH  20  23
ENDBRANCH  14  18
ENDBRANCH  11  14
ENDBRANCH   5  10
BRANCH   7  26
ATOM     26  C   UNL d   1      30.775   0.562 -13.805  0.00  0.00     0.194 C 
ATOM     27  OXT UNL d   1      31.638  -0.218 -13.425  0.00  0.00    -0.645 OA
BRANCH  26  28
ATOM     28  O   UNL d   1      30.331   1.543 -12.993  0.00  0.00    -0.772 OA
ATOM     29  H   UNL d   1      30.861   2.370 -13.006  0.00  0.00     0.167 HD
ENDBRANCH  26  28
ENDBRANCH   7  26
BRANCH   8  30
ATOM     30  C   UNL d   1      31.752   1.876 -16.301  0.00  0.00     0.216 C 
BRANCH  30  31
ATOM     31  O   UNL d   1      31.340   3.245 -16.154  0.00  0.00    -0.317 OA
BRANCH  31  32
ATOM     32  C   UNL d   1      32.015   3.982 -15.234  0.00  0.00     0.255 C 
ATOM     33  O   UNL d   1      31.841   3.942 -14.025  0.00  0.00    -0.266 OA
ATOM     34  C   UNL d   1      33.024   4.854 -15.915  0.00  0.00     0.126 C 
ENDBRANCH  31  32
ENDBRANCH  30  31
ENDBRANCH   8  30
TORSDOF 10
ENDMDL
MODEL 4
REMARK VINA RESULT:      -6.0     20.851     23.203
REMARK  10 active torsions:
REMARK  status: ('A' for Active; 'I' for Inactive)
REMARK    1  A    between atoms: O_4  and  C_21 
REMARK    2  A    between atoms: O_4  and  C_26 
REMARK    3  A    between atoms: O_5  and  C_22 
REMARK    4  A    between atoms: O_8  and  N_12 
REMARK    5  A    between atoms: CA_16  and  N_11 
REMARK       I    between atoms: N_11  and  C_23 
REMARK    6  A    between atoms: N_14  and  C_29 
REMARK    7  A    between atoms: CA_18  and  C_22 
REMARK    8  A    between atoms: C_19  and  C_21 
REMARK    9  A    between atoms: C_23  and  C_24 
REMARK   10  A    between atoms: C_24  and  C_25 
ROOT
ATOM      1  S   UNL d   1      20.230  -6.339 -11.081  0.00  0.00    -0.136 SA
ATOM      2  O   UNL d   1      23.417  -3.780 -11.757  0.00  0.00    -0.271 OA
ATOM      3  N   UNL d   1      21.132  -4.056 -12.101  0.00  0.00    -0.293 N 
ATOM      4  C   UNL d   1      20.674  -5.366 -12.551  0.00  0.00     0.187 C 
ATOM      5  CA  UNL d   1      22.124  -5.553 -13.138  0.00  0.00     0.211 C 
ATOM      6  C   UNL d   1      22.464  -4.365 -12.194  0.00  0.00     0.251 C 
ATOM      7  CA  UNL d   1      20.459  -3.260 -11.207  0.00  0.00     0.117 C 
ATOM      8  C   UNL d   1      19.409  -3.739 -10.486  0.00  0.00    -0.013 C 
ATOM      9  C   UNL d   1      18.925  -5.175 -10.573  0.00  0.00     0.115 C 
ENDROOT
BRANCH   5  10
ATOM     10  N   UNL d   1      22.743  -6.924 -13.057  0.00  0.00    -0.339 N 
ATOM     11  C   UNL d   1      23.142  -7.485 -14.265  0.00  0.00     0.275 C 
ATOM     12  O   UNL d   1      23.645  -8.609 -14.290  0.00  0.00    -0.266 OA
ATOM     13  H   UNL d   1      23.042  -7.353 -12.188  0.00  0.00     0.163 HD
BRANCH  11  14
ATOM     14  C   UNL d   1      23.007  -6.737 -15.593  0.00  0.00     0.180 C 
ATOM     15  N   UNL d   1      22.070  -6.830 -16.492  0.00  0.00    -0.126 NA
BRANCH  15  16
ATOM     16  O   UNL d   1      21.024  -7.713 -16.235  0.00  0.00    -0.261 OA
ATOM     17  C   UNL d   1      19.912  -6.905 -15.812  0.00  0.00     0.240 C 
ENDBRANCH  15  16
BRANCH  14  18
ATOM     18  C   UNL d   1      24.129  -5.880 -15.995  0.00  0.00     0.102 A 
ATOM     19  N   UNL d   1      24.960  -5.276 -15.059  0.00  0.00    -0.222 NA
ATOM     20  C   UNL d   1      25.971  -4.698 -15.655  0.00  0.00     0.164 A 
ATOM     21  S   UNL d   1      25.944  -4.738 -17.368  0.00  0.00    -0.062 SA
ATOM     22  C   UNL d   1      24.499  -5.651 -17.311  0.00  0.00     0.087 A 
BRANCH  20  23
ATOM     23  N   UNL d   1      26.973  -4.116 -14.985  0.00  0.00    -0.378 N 
ATOM     24  H   UNL d   1      27.846  -3.917 -15.454  0.00  0.00     0.158 HD
ATOM     25  H   UNL d   1      26.719  -3.489 -14.230  0.00  0.00     0.158 HD
ENDBRANCH  20  23
ENDBRANCH  14  18
ENDBRANCH  11  14
ENDBRANCH   5  10
BRANCH   7  26
ATOM     26  C   UNL d   1      20.818  -1.787 -11.145  0.00  0.00     0.194 C 
ATOM     27  OXT UNL d   1      20.225  -0.916 -11.766  0.00  0.00    -0.645 OA
BRANCH  26  28
ATOM     28  O   UNL d   1      21.941  -1.495 -10.458  0.00  0.00    -0.772 OA
ATOM     29  H   UNL d   1      22.673  -1.115 -10.991  0.00  0.00     0.167 HD
ENDBRANCH  26  28
ENDBRANCH   7  26
BRANCH   8  30
ATOM     30  C   UNL d   1      18.637  -2.927  -9.455  0.00  0.00     0.216 C 
BRANCH  30  31
ATOM     31  O   UNL d   1      17.611  -2.159 -10.105  0.00  0.00    -0.317 OA
BRANCH  31  32
ATOM     32  C   UNL d   1      16.343  -2.632  -9.996  0.00  0.00     0.255 C 
ATOM     33  O   UNL d   1      15.957  -3.449  -9.172  0.00  0.00    -0.266 OA
ATOM     34  C   UNL d   1      15.466  -1.996 -11.030  0.00  0.00     0.126 C 
ENDBRANCH  31  32
ENDBRANCH  30  31
ENDBRANCH   8  30
TORSDOF 10
ENDMDL
MODEL 5
REMARK VINA RESULT:      -5.9     20.563     23.872
REMARK  10 active torsions:
REMARK  status: ('A' for Active; 'I' for Inactive)
REMARK    1  A    between atoms: O_4  and  C_21 
REMARK    2  A    between atoms: O_4  and  C_26 
REMARK    3  A    between atoms: O_5  and  C_22 
REMARK    4  A    between atoms: O_8  and  N_12 
REMARK    5  A    between atoms: CA_16  and  N_11 
REMARK       I    between atoms: N_11  and  C_23 
REMARK    6  A    between atoms: N_14  and  C_29 
REMARK    7  A    between atoms: CA_18  and  C_22 
REMARK    8  A    between atoms: C_19  and  C_21 
REMARK    9  A    between atoms: C_23  and  C_24 
REMARK   10  A    between atoms: C_24  and  C_25 
ROOT
ATOM      1  S   UNL d   1      22.631  -0.805 -11.900  0.00  0.00    -0.136 SA
ATOM      2  O   UNL d   1      23.075  -4.889 -11.360  0.00  0.00    -0.271 OA
ATOM      3  N   UNL d   1      22.834  -3.229 -12.974  0.00  0.00    -0.293 N 
ATOM      4  C   UNL d   1      21.824  -2.203 -12.737  0.00  0.00     0.187 C 
ATOM      5  CA  UNL d   1      21.102  -3.274 -11.834  0.00  0.00     0.211 C 
ATOM      6  C   UNL d   1      22.484  -3.985 -11.884  0.00  0.00     0.251 C 
ATOM      7  CA  UNL d   1      24.061  -2.997 -13.544  0.00  0.00     0.117 C 
ATOM      8  C   UNL d   1      24.527  -1.731 -13.727  0.00  0.00    -0.013 C 
ATOM      9  C   UNL d   1      23.766  -0.493 -13.289  0.00  0.00     0.115 C 
ENDROOT
BRANCH   5  10
ATOM     10  N   UNL d   1      20.425  -2.792 -10.577  0.00  0.00    -0.339 N 
ATOM     11  C   UNL d   1      19.039  -2.899 -10.553  0.00  0.00     0.275 C 
ATOM     12  O   UNL d   1      18.406  -2.514  -9.568  0.00  0.00    -0.266 OA
ATOM     13  H   UNL d   1      20.922  -2.583  -9.718  0.00  0.00     0.163 HD
BRANCH  11  14
ATOM     14  C   UNL d   1      18.249  -3.513 -11.710  0.00  0.00     0.180 C 
ATOM     15  N   UNL d   1      17.733  -2.925 -12.751  0.00  0.00    -0.126 NA
BRANCH  15  16
ATOM     16  O   UNL d   1      17.916  -1.550 -12.863  0.00  0.00    -0.261 OA
ATOM     17  C   UNL d   1      18.450  -1.323 -14.180  0.00  0.00     0.240 C 
ENDBRANCH  15  16
BRANCH  14  18
ATOM     18  C   UNL d   1      17.907  -4.937 -11.604  0.00  0.00     0.102 A 
ATOM     19  N   UNL d   1      18.685  -5.823 -10.868  0.00  0.00    -0.222 NA
ATOM     20  C   UNL d   1      18.096  -6.989 -10.794  0.00  0.00     0.164 A 
ATOM     21  S   UNL d   1      16.638  -7.143 -11.682  0.00  0.00    -0.062 SA
ATOM     22  C   UNL d   1      16.770  -5.505 -12.157  0.00  0.00     0.087 A 
BRANCH  20  23
ATOM     23  N   UNL d   1      18.583  -8.004 -10.070  0.00  0.00    -0.378 N 
ATOM     24  H   UNL d   1      18.150  -8.252  -9.192  0.00  0.00     0.158 HD
ATOM     25  H   UNL d   1      19.027  -8.761 -10.578  0.00  0.00     0.158 HD
ENDBRANCH  20  23
ENDBRANCH  14  18
ENDBRANCH  11  14
ENDBRANCH   5  10
BRANCH   7  26
ATOM     26  C   UNL d   1      24.829  -4.180 -14.102  0.00  0.00     0.194 C 
ATOM     27  OXT UNL d   1      24.687  -4.607 -15.240  0.00  0.00    -0.645 OA
BRANCH  26  28
ATOM     28  O   UNL d   1      25.598  -4.841 -13.213  0.00  0.00    -0.772 OA
ATOM     29  H   UNL d   1      26.158  -4.273 -12.639  0.00  0.00     0.167 HD
ENDBRANCH  26  28
ENDBRANCH   7  26
BRANCH   8  30
ATOM     30  C   UNL d   1      25.888  -1.398 -14.321  0.00  0.00     0.216 C 
BRANCH  30  31
ATOM     31  O   UNL d   1      26.330  -0.116 -13.845  0.00  0.00    -0.317 OA
BRANCH  31  32
ATOM     32  C   UNL d   1      27.671   0.102 -13.856  0.00  0.00     0.255 C 
ATOM     33  O   UNL d   1      28.318   0.597 -12.944  0.00  0.00    -0.266 OA
ATOM     34  C   UNL d   1      28.257  -0.368 -15.151  0.00  0.00     0.126 C 
ENDBRANCH  31  32
ENDBRANCH  30  31
ENDBRANCH   8  30
TORSDOF 10
ENDMDL
MODEL 6
REMARK VINA RESULT:      -5.9     28.609     30.491
REMARK  10 active torsions:
REMARK  status: ('A' for Active; 'I' for Inactive)
REMARK    1  A    between atoms: O_4  and  C_21 
REMARK    2  A    between atoms: O_4  and  C_26 
REMARK    3  A    between atoms: O_5  and  C_22 
REMARK    4  A    between atoms: O_8  and  N_12 
REMARK    5  A    between atoms: CA_16  and  N_11 
REMARK       I    between atoms: N_11  and  C_23 
REMARK    6  A    between atoms: N_14  and  C_29 
REMARK    7  A    between atoms: CA_18  and  C_22 
REMARK    8  A    between atoms: C_19  and  C_21 
REMARK    9  A    between atoms: C_23  and  C_24 
REMARK   10  A    between atoms: C_24  and  C_25 
ROOT
ATOM      1  S   UNL d   1      15.324 -12.255  11.242  0.00  0.00    -0.136 SA
ATOM      2  O   UNL d   1      17.733  -9.035  12.236  0.00  0.00    -0.271 OA
ATOM      3  N   UNL d   1      16.523 -10.812  13.126  0.00  0.00    -0.293 N 
ATOM      4  C   UNL d   1      15.185 -11.047  12.594  0.00  0.00     0.187 C 
ATOM      5  CA  UNL d   1      15.187  -9.519  12.209  0.00  0.00     0.211 C 
ATOM      6  C   UNL d   1      16.721  -9.651  12.425  0.00  0.00     0.251 C 
ATOM      7  CA  UNL d   1      17.405 -11.803  13.482  0.00  0.00     0.117 C 
ATOM      8  C   UNL d   1      17.180 -13.103  13.146  0.00  0.00    -0.013 C 
ATOM      9  C   UNL d   1      15.982 -13.557  12.331  0.00  0.00     0.115 C 
ENDROOT
BRANCH   5  10
ATOM     10  N   UNL d   1      14.529  -9.121  10.913  0.00  0.00    -0.339 N 
ATOM     11  C   UNL d   1      13.792  -7.942  10.941  0.00  0.00     0.275 C 
ATOM     12  O   UNL d   1      13.211  -7.551   9.927  0.00  0.00    -0.266 OA
ATOM     13  H   UNL d   1      14.746  -9.549  10.020  0.00  0.00     0.163 HD
BRANCH  11  14
ATOM     14  C   UNL d   1      13.694  -7.073  12.197  0.00  0.00     0.180 C 
ATOM     15  N   UNL d   1      12.804  -7.108  13.147  0.00  0.00    -0.126 NA
BRANCH  15  16
ATOM     16  O   UNL d   1      11.797  -8.063  13.044  0.00  0.00    -0.261 OA
ATOM     17  C   UNL d   1      11.955  -8.936  14.176  0.00  0.00     0.240 C 
ENDBRANCH  15  16
BRANCH  14  18
ATOM     18  C   UNL d   1      14.645  -5.962  12.317  0.00  0.00     0.102 A 
ATOM     19  N   UNL d   1      14.519  -4.994  13.306  0.00  0.00    -0.222 NA
ATOM     20  C   UNL d   1      15.565  -4.207  13.307  0.00  0.00     0.164 A 
ATOM     21  S   UNL d   1      16.712  -4.495  12.066  0.00  0.00    -0.062 SA
ATOM     22  C   UNL d   1      15.769  -5.813  11.518  0.00  0.00     0.087 A 
BRANCH  20  23
ATOM     23  N   UNL d   1      15.745  -3.241  14.216  0.00  0.00    -0.378 N 
ATOM     24  H   UNL d   1      15.172  -3.216  15.047  0.00  0.00     0.158 HD
ATOM     25  H   UNL d   1      16.682  -2.864  14.308  0.00  0.00     0.158 HD
ENDBRANCH  20  23
ENDBRANCH  14  18
ENDBRANCH  11  14
ENDBRANCH   5  10
BRANCH   7  26
ATOM     26  C   UNL d   1      18.567 -11.439  14.387  0.00  0.00     0.194 C 
ATOM     27  OXT UNL d   1      19.685 -11.157  13.978  0.00  0.00    -0.645 OA
BRANCH  26  28
ATOM     28  O   UNL d   1      18.335 -11.579  15.708  0.00  0.00    -0.772 OA
ATOM     29  H   UNL d   1      19.050 -11.250  16.297  0.00  0.00     0.167 HD
ENDBRANCH  26  28
ENDBRANCH   7  26
BRANCH   8  30
ATOM     30  C   UNL d   1      18.126 -14.248  13.477  0.00  0.00     0.216 C 
BRANCH  30  31
ATOM     31  O   UNL d   1      17.442 -15.237  14.264  0.00  0.00    -0.317 OA
BRANCH  31  32
ATOM     32  C   UNL d   1      17.756 -15.279  15.585  0.00  0.00     0.255 C 
ATOM     33  O   UNL d   1      17.807 -14.315  16.335  0.00  0.00    -0.266 OA
ATOM     34  C   UNL d   1      18.023 -16.692  16.005  0.00  0.00     0.126 C 
ENDBRANCH  31  32
ENDBRANCH  30  31
ENDBRANCH   8  30
TORSDOF 10
ENDMDL
MODEL 7
REMARK VINA RESULT:      -5.8     20.906     22.761
REMARK  10 active torsions:
REMARK  status: ('A' for Active; 'I' for Inactive)
REMARK    1  A    between atoms: O_4  and  C_21 
REMARK    2  A    between atoms: O_4  and  C_26 
REMARK    3  A    between atoms: O_5  and  C_22 
REMARK    4  A    between atoms: O_8  and  N_12 
REMARK    5  A    between atoms: CA_16  and  N_11 
REMARK       I    between atoms: N_11  and  C_23 
REMARK    6  A    between atoms: N_14  and  C_29 
REMARK    7  A    between atoms: CA_18  and  C_22 
REMARK    8  A    between atoms: C_19  and  C_21 
REMARK    9  A    between atoms: C_23  and  C_24 
REMARK   10  A    between atoms: C_24  and  C_25 
ROOT
ATOM      1  S   UNL d   1      23.736  -2.768 -11.767  0.00  0.00    -0.136 SA
ATOM      2  O   UNL d   1      21.132   0.402 -11.190  0.00  0.00    -0.271 OA
ATOM      3  N   UNL d   1      21.482  -1.530 -12.440  0.00  0.00    -0.293 N 
ATOM      4  C   UNL d   1      22.823  -1.754 -12.969  0.00  0.00     0.187 C 
ATOM      5  CA  UNL d   1      23.000  -0.190 -12.887  0.00  0.00     0.211 C 
ATOM      6  C   UNL d   1      21.761  -0.279 -11.952  0.00  0.00     0.251 C 
ATOM      7  CA  UNL d   1      20.662  -2.517 -11.952  0.00  0.00     0.117 C 
ATOM      8  C   UNL d   1      21.132  -3.771 -11.709  0.00  0.00    -0.013 C 
ATOM      9  C   UNL d   1      22.583  -4.169 -11.913  0.00  0.00     0.115 C 
ENDROOT
BRANCH   5  10
ATOM     10  N   UNL d   1      24.350   0.342 -12.482  0.00  0.00    -0.339 N 
ATOM     11  C   UNL d   1      25.275   0.504 -13.509  0.00  0.00     0.275 C 
ATOM     12  O   UNL d   1      26.407   0.922 -13.262  0.00  0.00    -0.266 OA
ATOM     13  H   UNL d   1      24.542   0.750 -11.573  0.00  0.00     0.163 HD
BRANCH  11  14
ATOM     14  C   UNL d   1      24.930   0.205 -14.969  0.00  0.00     0.180 C 
ATOM     15  N   UNL d   1      24.366   0.979 -15.851  0.00  0.00    -0.126 NA
BRANCH  15  16
ATOM     16  O   UNL d   1      24.029   2.268 -15.446  0.00  0.00    -0.261 OA
ATOM     17  C   UNL d   1      23.912   3.048 -16.649  0.00  0.00     0.240 C 
ENDBRANCH  15  16
BRANCH  14  18
ATOM     18  C   UNL d   1      25.140  -1.171 -15.437  0.00  0.00     0.102 A 
ATOM     19  N   UNL d   1      25.967  -2.056 -14.757  0.00  0.00    -0.222 NA
ATOM     20  C   UNL d   1      25.869  -3.255 -15.272  0.00  0.00     0.164 A 
ATOM     21  S   UNL d   1      24.877  -3.387 -16.664  0.00  0.00    -0.062 SA
ATOM     22  C   UNL d   1      24.498  -1.724 -16.535  0.00  0.00     0.087 A 
BRANCH  20  23
ATOM     23  N   UNL d   1      26.492  -4.321 -14.755  0.00  0.00    -0.378 N 
ATOM     24  H   UNL d   1      27.452  -4.516 -15.004  0.00  0.00     0.158 HD
ATOM     25  H   UNL d   1      26.202  -4.621 -13.831  0.00  0.00     0.158 HD
ENDBRANCH  20  23
ENDBRANCH  14  18
ENDBRANCH  11  14
ENDBRANCH   5  10
BRANCH   7  26
ATOM     26  C   UNL d   1      19.179  -2.221 -11.825  0.00  0.00     0.194 C 
ATOM     27  OXT UNL d   1      18.378  -2.357 -12.740  0.00  0.00    -0.645 OA
BRANCH  26  28
ATOM     28  O   UNL d   1      18.801  -1.657 -10.660  0.00  0.00    -0.772 OA
ATOM     29  H   UNL d   1      19.521  -1.226 -10.149  0.00  0.00     0.167 HD
ENDBRANCH  26  28
ENDBRANCH   7  26
BRANCH   8  30
ATOM     30  C   UNL d   1      20.293  -4.905 -11.139  0.00  0.00     0.216 C 
BRANCH  30  31
ATOM     31  O   UNL d   1      20.957  -6.161 -11.351  0.00  0.00    -0.317 OA
BRANCH  31  32
ATOM     32  C   UNL d   1      20.176  -7.197 -11.753  0.00  0.00     0.255 C 
ATOM     33  O   UNL d   1      20.211  -7.730 -12.852  0.00  0.00    -0.266 OA
ATOM     34  C   UNL d   1      19.260  -7.610 -10.642  0.00  0.00     0.126 C 
ENDBRANCH  31  32
ENDBRANCH  30  31
ENDBRANCH   8  30
TORSDOF 10
ENDMDL
MODEL 8
REMARK VINA RESULT:      -5.7      3.697      8.287
REMARK  10 active torsions:
REMARK  status: ('A' for Active; 'I' for Inactive)
REMARK    1  A    between atoms: O_4  and  C_21 
REMARK    2  A    between atoms: O_4  and  C_26 
REMARK    3  A    between atoms: O_5  and  C_22 
REMARK    4  A    between atoms: O_8  and  N_12 
REMARK    5  A    between atoms: CA_16  and  N_11 
REMARK       I    between atoms: N_11  and  C_23 
REMARK    6  A    between atoms: N_14  and  C_29 
REMARK    7  A    between atoms: CA_18  and  C_22 
REMARK    8  A    between atoms: C_19  and  C_21 
REMARK    9  A    between atoms: C_23  and  C_24 
REMARK   10  A    between atoms: C_24  and  C_25 
ROOT
ATOM      1  S   UNL d   1      42.287 -10.135  -3.284  0.00  0.00    -0.136 SA
ATOM      2  O   UNL d   1      39.145  -8.850  -5.659  0.00  0.00    -0.271 OA
ATOM      3  N   UNL d   1      41.289  -8.305  -4.934  0.00  0.00    -0.293 N 
ATOM      4  C   UNL d   1      41.581  -8.475  -3.515  0.00  0.00     0.187 C 
ATOM      5  CA  UNL d   1      40.032  -8.304  -3.285  0.00  0.00     0.211 C 
ATOM      6  C   UNL d   1      39.955  -8.597  -4.810  0.00  0.00     0.251 C 
ATOM      7  CA  UNL d   1      42.173  -8.576  -5.950  0.00  0.00     0.117 C 
ATOM      8  C   UNL d   1      43.331  -9.252  -5.717  0.00  0.00    -0.013 C 
ATOM      9  C   UNL d   1      43.721  -9.790  -4.352  0.00  0.00     0.115 C 
ENDROOT
BRANCH   5  10
ATOM     10  N   UNL d   1      39.385  -9.140  -2.211  0.00  0.00    -0.339 N 
ATOM     11  C   UNL d   1      38.150  -8.694  -1.753  0.00  0.00     0.275 C 
ATOM     12  O   UNL d   1      37.558  -9.312  -0.867  0.00  0.00    -0.266 OA
ATOM     13  H   UNL d   1      39.702 -10.069  -1.958  0.00  0.00     0.163 HD
BRANCH  11  14
ATOM     14  C   UNL d   1      37.464  -7.457  -2.336  0.00  0.00     0.180 C 
ATOM     15  N   UNL d   1      37.609  -6.207  -2.001  0.00  0.00    -0.126 NA
BRANCH  15  16
ATOM     16  O   UNL d   1      38.515  -5.921  -0.983  0.00  0.00    -0.261 OA
ATOM     17  C   UNL d   1      37.751  -5.887   0.235  0.00  0.00     0.240 C 
ENDBRANCH  15  16
BRANCH  14  18
ATOM     18  C   UNL d   1      36.405  -7.685  -3.327  0.00  0.00     0.102 A 
ATOM     19  N   UNL d   1      35.290  -8.463  -3.041  0.00  0.00    -0.222 NA
ATOM     20  C   UNL d   1      34.421  -8.388  -4.016  0.00  0.00     0.164 A 
ATOM     21  S   UNL d   1      34.917  -7.481  -5.384  0.00  0.00    -0.062 SA
ATOM     22  C   UNL d   1      36.384  -7.107  -4.587  0.00  0.00     0.087 A 
BRANCH  20  23
ATOM     23  N   UNL d   1      33.217  -8.971  -3.963  0.00  0.00    -0.378 N 
ATOM     24  H   UNL d   1      33.145  -9.977  -3.902  0.00  0.00     0.158 HD
ATOM     25  H   UNL d   1      32.468  -8.443  -3.530  0.00  0.00     0.158 HD
ENDBRANCH  20  23
ENDBRANCH  14  18
ENDBRANCH  11  14
ENDBRANCH   5  10
BRANCH   7  26
ATOM     26  C   UNL d   1      41.901  -7.978  -7.317  0.00  0.00     0.194 C 
ATOM     27  OXT UNL d   1      41.253  -8.541  -8.189  0.00  0.00    -0.645 OA
BRANCH  26  28
ATOM     28  O   UNL d   1      42.540  -6.819  -7.578  0.00  0.00    -0.772 OA
ATOM     29  H   UNL d   1      42.473  -6.136  -6.875  0.00  0.00     0.167 HD
ENDBRANCH  26  28
ENDBRANCH   7  26
BRANCH   8  30
ATOM     30  C   UNL d   1      44.341  -9.616  -6.795  0.00  0.00     0.216 C 
BRANCH  30  31
ATOM     31  O   UNL d   1      45.170  -8.481  -7.094  0.00  0.00    -0.317 OA
BRANCH  31  32
ATOM     32  C   UNL d   1      46.439  -8.518  -6.612  0.00  0.00     0.255 C 
ATOM     33  O   UNL d   1      47.124  -9.524  -6.490  0.00  0.00    -0.266 OA
ATOM     34  C   UNL d   1      46.895  -7.136  -6.258  0.00  0.00     0.126 C 
ENDBRANCH  31  32
ENDBRANCH  30  31
ENDBRANCH   8  30
TORSDOF 10
ENDMDL
MODEL 9
REMARK VINA RESULT:      -5.6     29.078     31.920
REMARK  10 active torsions:
REMARK  status: ('A' for Active; 'I' for Inactive)
REMARK    1  A    between atoms: O_4  and  C_21 
REMARK    2  A    between atoms: O_4  and  C_26 
REMARK    3  A    between atoms: O_5  and  C_22 
REMARK    4  A    between atoms: O_8  and  N_12 
REMARK    5  A    between atoms: CA_16  and  N_11 
REMARK       I    between atoms: N_11  and  C_23 
REMARK    6  A    between atoms: N_14  and  C_29 
REMARK    7  A    between atoms: CA_18  and  C_22 
REMARK    8  A    between atoms: C_19  and  C_21 
REMARK    9  A    between atoms: C_23  and  C_24 
REMARK   10  A    between atoms: C_24  and  C_25 
ROOT
ATOM      1  S   UNL d   1      16.702  -4.416  12.250  0.00  0.00    -0.136 SA
ATOM      2  O   UNL d   1      13.356  -4.976  14.627  0.00  0.00    -0.271 OA
ATOM      3  N   UNL d   1      15.622  -5.471  14.438  0.00  0.00    -0.293 N 
ATOM      4  C   UNL d   1      16.110  -5.893  13.129  0.00  0.00     0.187 C 
ATOM      5  CA  UNL d   1      14.633  -6.365  12.849  0.00  0.00     0.211 C 
ATOM      6  C   UNL d   1      14.303  -5.454  14.065  0.00  0.00     0.251 C 
ATOM      7  CA  UNL d   1      16.317  -4.664  15.305  0.00  0.00     0.117 C 
ATOM      8  C   UNL d   1      17.436  -3.999  14.910  0.00  0.00    -0.013 C 
ATOM      9  C   UNL d   1      17.981  -4.056  13.494  0.00  0.00     0.115 C 
ENDROOT
BRANCH   5  10
ATOM     10  N   UNL d   1      14.089  -6.178  11.457  0.00  0.00    -0.339 N 
ATOM     11  C   UNL d   1      13.560  -7.313  10.852  0.00  0.00     0.275 C 
ATOM     12  O   UNL d   1      13.106  -7.251   9.709  0.00  0.00    -0.266 OA
ATOM     13  H   UNL d   1      13.923  -5.270  11.038  0.00  0.00     0.163 HD
BRANCH  11  14
ATOM     14  C   UNL d   1      13.490  -8.662  11.573  0.00  0.00     0.180 C 
ATOM     15  N   UNL d   1      14.279  -9.691  11.459  0.00  0.00    -0.126 NA
BRANCH  15  16
ATOM     16  O   UNL d   1      15.351  -9.579  10.579  0.00  0.00    -0.261 OA
ATOM     17  C   UNL d   1      16.507  -9.300  11.388  0.00  0.00     0.240 C 
ENDBRANCH  15  16
BRANCH  14  18
ATOM     18  C   UNL d   1      12.319  -8.904  12.424  0.00  0.00     0.102 A 
ATOM     19  N   UNL d   1      11.446  -7.882  12.776  0.00  0.00    -0.222 NA
ATOM     20  C   UNL d   1      10.405  -8.369  13.401  0.00  0.00     0.164 A 
ATOM     21  S   UNL d   1      10.445 -10.055  13.709  0.00  0.00    -0.062 SA
ATOM     22  C   UNL d   1      11.944 -10.155  12.891  0.00  0.00     0.087 A 
BRANCH  20  23
ATOM     23  N   UNL d   1       9.364  -7.615  13.776  0.00  0.00    -0.378 N 
ATOM     24  H   UNL d   1       8.718  -7.956  14.473  0.00  0.00     0.158 HD
ATOM     25  H   UNL d   1       9.485  -6.609  13.735  0.00  0.00     0.158 HD
ENDBRANCH  20  23
ENDBRANCH  14  18
ENDBRANCH  11  14
ENDBRANCH   5  10
BRANCH   7  26
ATOM     26  C   UNL d   1      15.892  -4.643  16.762  0.00  0.00     0.194 C 
ATOM     27  OXT UNL d   1      16.308  -5.429  17.603  0.00  0.00    -0.645 OA
BRANCH  26  28
ATOM     28  O   UNL d   1      14.903  -3.777  17.062  0.00  0.00    -0.772 OA
ATOM     29  H   UNL d   1      15.197  -2.873  17.308  0.00  0.00     0.167 HD
ENDBRANCH  26  28
ENDBRANCH   7  26
BRANCH   8  30
ATOM     30  C   UNL d   1      18.237  -3.064  15.804  0.00  0.00     0.216 C 
BRANCH  30  31
ATOM     31  O   UNL d   1      18.362  -1.776  15.180  0.00  0.00    -0.317 OA
BRANCH  31  32
ATOM     32  C   UNL d   1      17.700  -0.750  15.776  0.00  0.00     0.255 C 
ATOM     33  O   UNL d   1      16.696  -0.857  16.464  0.00  0.00    -0.266 OA
ATOM     34  C   UNL d   1      18.389   0.546  15.479  0.00  0.00     0.126 C 
ENDBRANCH  31  32
ENDBRANCH  30  31
ENDBRANCH   8  30
TORSDOF 10
ENDMDL
