MODEL 1
REMARK VINA RESULT:      -6.6      0.000      0.000
REMARK  10 active torsions:
REMARK  status: ('A' for Active; 'I' for Inactive)
REMARK    1  A    between atoms: O_4  and  C_21 
REMARK    2  A    between atoms: O_4  and  C_26 
REMARK    3  A    between atoms: O_5  and  C_22 
REMARK    4  A    between atoms: O_8  and  N_12 
REMARK    5  A    between atoms: CA_16  and  N_11 
REMARK       I    between atoms: N_11  and  C_23 
REMARK    6  A    between atoms: N_14  and  C_29 
REMARK    7  A    between atoms: CA_18  and  C_22 
REMARK    8  A    between atoms: C_19  and  C_21 
REMARK    9  A    between atoms: C_23  and  C_24 
REMARK   10  A    between atoms: C_24  and  C_25 
ROOT
ATOM      1  S   UNL d   1      39.687  -7.459  -5.866  0.00  0.00    -0.136 SA
ATOM      2  O   UNL d   1      36.529  -5.170  -7.276  0.00  0.00    -0.271 OA
ATOM      3  N   UNL d   1      37.060  -7.182  -6.212  0.00  0.00    -0.293 N 
ATOM      4  C   UNL d   1      38.178  -7.953  -6.753  0.00  0.00     0.187 C 
ATOM      5  CA  UNL d   1      37.874  -7.233  -8.122  0.00  0.00     0.211 C 
ATOM      6  C   UNL d   1      37.077  -6.256  -7.221  0.00  0.00     0.251 C 
ATOM      7  CA  UNL d   1      36.791  -7.036  -4.873  0.00  0.00     0.117 C 
ATOM      8  C   UNL d   1      37.684  -7.431  -3.928  0.00  0.00    -0.013 C 
ATOM      9  C   UNL d   1      39.048  -8.007  -4.253  0.00  0.00     0.115 C 
ENDROOT
BRANCH   5  10
ATOM     10  N   UNL d   1      39.050  -6.849  -8.981  0.00  0.00    -0.339 N 
ATOM     11  C   UNL d   1      39.134  -7.485 -10.218  0.00  0.00     0.275 C 
ATOM     12  O   UNL d   1      40.073  -7.237 -10.976  0.00  0.00    -0.266 OA
ATOM     13  H   UNL d   1      39.650  -6.050  -8.792  0.00  0.00     0.163 HD
BRANCH  11  14
ATOM     14  C   UNL d   1      38.079  -8.479 -10.695  0.00  0.00     0.180 C 
ATOM     15  N   UNL d   1      38.096  -9.779 -10.627  0.00  0.00    -0.126 NA
BRANCH  15  16
ATOM     16  O   UNL d   1      39.198 -10.373 -10.018  0.00  0.00    -0.261 OA
ATOM     17  C   UNL d   1      39.938 -11.014 -11.077  0.00  0.00     0.240 C 
ENDBRANCH  15  16
BRANCH  14  18
ATOM     18  C   UNL d   1      36.933  -7.938 -11.440  0.00  0.00     0.102 A 
ATOM     19  N   UNL d   1      35.793  -8.702 -11.663  0.00  0.00    -0.222 NA
ATOM     20  C   UNL d   1      34.857  -7.969 -12.210  0.00  0.00     0.164 A 
ATOM     21  S   UNL d   1      35.306  -6.359 -12.592  0.00  0.00    -0.062 SA
ATOM     22  C   UNL d   1      36.856  -6.644 -11.926  0.00  0.00     0.087 A 
BRANCH  20  23
ATOM     23  N   UNL d   1      33.625  -8.429 -12.457  0.00  0.00    -0.378 N 
ATOM     24  H   UNL d   1      32.994  -7.887 -13.033  0.00  0.00     0.158 HD
ATOM     25  H   UNL d   1      33.509  -9.434 -12.497  0.00  0.00     0.158 HD
ENDBRANCH  20  23
ENDBRANCH  14  18
ENDBRANCH  11  14
ENDBRANCH   5  10
BRANCH   7  26
ATOM     26  C   UNL d   1      35.407  -6.565  -4.474  0.00  0.00     0.194 C 
ATOM     27  OXT UNL d   1      34.451  -7.315  -4.347  0.00  0.00    -0.645 OA
BRANCH  26  28
ATOM     28  O   UNL d   1      35.252  -5.228  -4.389  0.00  0.00    -0.772 OA
ATOM     29  H   UNL d   1      34.325  -4.910  -4.342  0.00  0.00     0.167 HD
ENDBRANCH  26  28
ENDBRANCH   7  26
BRANCH   8  30
ATOM     30  C   UNL d   1      37.459  -7.284  -2.429  0.00  0.00     0.216 C 
BRANCH  30  31
ATOM     31  O   UNL d   1      38.069  -6.076  -1.951  0.00  0.00    -0.317 OA
BRANCH  31  32
ATOM     32  C   UNL d   1      38.304  -6.007  -0.615  0.00  0.00     0.255 C 
ATOM     33  O   UNL d   1      37.449  -5.892   0.252  0.00  0.00    -0.266 OA
ATOM     34  C   UNL d   1      39.774  -6.108  -0.347  0.00  0.00     0.126 C 
ENDBRANCH  31  32
ENDBRANCH  30  31
ENDBRANCH   8  30
TORSDOF 10
ENDMDL
MODEL 2
REMARK VINA RESULT:      -6.4      3.028      7.711
REMARK  10 active torsions:
REMARK  status: ('A' for Active; 'I' for Inactive)
REMARK    1  A    between atoms: O_4  and  C_21 
REMARK    2  A    between atoms: O_4  and  C_26 
REMARK    3  A    between atoms: O_5  and  C_22 
REMARK    4  A    between atoms: O_8  and  N_12 
REMARK    5  A    between atoms: CA_16  and  N_11 
REMARK       I    between atoms: N_11  and  C_23 
REMARK    6  A    between atoms: N_14  and  C_29 
REMARK    7  A    between atoms: CA_18  and  C_22 
REMARK    8  A    between atoms: C_19  and  C_21 
REMARK    9  A    between atoms: C_23  and  C_24 
REMARK   10  A    between atoms: C_24  and  C_25 
ROOT
ATOM      1  S   UNL d   1      40.266  -8.590  -7.559  0.00  0.00    -0.136 SA
ATOM      2  O   UNL d   1      36.325  -7.853  -6.499  0.00  0.00    -0.271 OA
ATOM      3  N   UNL d   1      38.240  -6.868  -7.408  0.00  0.00    -0.293 N 
ATOM      4  C   UNL d   1      39.515  -7.145  -6.748  0.00  0.00     0.187 C 
ATOM      5  CA  UNL d   1      38.665  -7.405  -5.447  0.00  0.00     0.211 C 
ATOM      6  C   UNL d   1      37.491  -7.505  -6.455  0.00  0.00     0.251 C 
ATOM      7  CA  UNL d   1      38.069  -6.784  -8.768  0.00  0.00     0.117 C 
ATOM      8  C   UNL d   1      39.048  -7.171  -9.626  0.00  0.00    -0.013 C 
ATOM      9  C   UNL d   1      40.369  -7.764  -9.178  0.00  0.00     0.115 C 
ENDROOT
BRANCH   5  10
ATOM     10  N   UNL d   1      39.115  -8.516  -4.534  0.00  0.00    -0.339 N 
ATOM     11  C   UNL d   1      38.497  -8.566  -3.287  0.00  0.00     0.275 C 
ATOM     12  O   UNL d   1      38.817  -9.436  -2.475  0.00  0.00    -0.266 OA
ATOM     13  H   UNL d   1      39.680  -9.304  -4.840  0.00  0.00     0.163 HD
BRANCH  11  14
ATOM     14  C   UNL d   1      37.401  -7.584  -2.881  0.00  0.00     0.180 C 
ATOM     15  N   UNL d   1      37.516  -6.456  -2.242  0.00  0.00    -0.126 NA
BRANCH  15  16
ATOM     16  O   UNL d   1      38.800  -6.048  -1.890  0.00  0.00    -0.261 OA
ATOM     17  C   UNL d   1      38.886  -6.200  -0.460  0.00  0.00     0.240 C 
ENDBRANCH  15  16
BRANCH  14  18
ATOM     18  C   UNL d   1      36.010  -7.990  -3.124  0.00  0.00     0.102 A 
ATOM     19  N   UNL d   1      35.084  -7.106  -3.665  0.00  0.00    -0.222 NA
ATOM     20  C   UNL d   1      33.964  -7.727  -3.930  0.00  0.00     0.164 A 
ATOM     21  S   UNL d   1      33.901  -9.373  -3.454  0.00  0.00    -0.062 SA
ATOM     22  C   UNL d   1      35.516  -9.265  -2.900  0.00  0.00     0.087 A 
BRANCH  20  23
ATOM     23  N   UNL d   1      32.928  -7.133  -4.534  0.00  0.00    -0.378 N 
ATOM     24  H   UNL d   1      32.024  -7.120  -4.081  0.00  0.00     0.158 HD
ATOM     25  H   UNL d   1      33.135  -6.343  -5.131  0.00  0.00     0.158 HD
ENDBRANCH  20  23
ENDBRANCH  14  18
ENDBRANCH  11  14
ENDBRANCH   5  10
BRANCH   7  26
ATOM     26  C   UNL d   1      36.816  -6.106  -9.285  0.00  0.00     0.194 C 
ATOM     27  OXT UNL d   1      35.834  -6.716  -9.682  0.00  0.00    -0.645 OA
BRANCH  26  28
ATOM     28  O   UNL d   1      36.891  -4.765  -9.407  0.00  0.00    -0.772 OA
ATOM     29  H   UNL d   1      36.965  -4.265  -8.566  0.00  0.00     0.167 HD
ENDBRANCH  26  28
ENDBRANCH   7  26
BRANCH   8  30
ATOM     30  C   UNL d   1      38.920  -7.122 -11.143  0.00  0.00     0.216 C 
BRANCH  30  31
ATOM     31  O   UNL d   1      39.789  -6.116 -11.683  0.00  0.00    -0.317 OA
BRANCH  31  32
ATOM     32  C   UNL d   1      39.207  -4.938 -12.027  0.00  0.00     0.255 C 
ATOM     33  O   UNL d   1      39.049  -3.980 -11.284  0.00  0.00    -0.266 OA
ATOM     34  C   UNL d   1      38.791  -4.972 -13.466  0.00  0.00     0.126 C 
ENDBRANCH  31  32
ENDBRANCH  30  31
ENDBRANCH   8  30
TORSDOF 10
ENDMDL
MODEL 3
REMARK VINA RESULT:      -6.0      9.096     11.979
REMARK  10 active torsions:
REMARK  status: ('A' for Active; 'I' for Inactive)
REMARK    1  A    between atoms: O_4  and  C_21 
REMARK    2  A    between atoms: O_4  and  C_26 
REMARK    3  A    between atoms: O_5  and  C_22 
REMARK    4  A    between atoms: O_8  and  N_12 
REMARK    5  A    between atoms: CA_16  and  N_11 
REMARK       I    between atoms: N_11  and  C_23 
REMARK    6  A    between atoms: N_14  and  C_29 
REMARK    7  A    between atoms: CA_18  and  C_22 
REMARK    8  A    between atoms: C_19  and  C_21 
REMARK    9  A    between atoms: C_23  and  C_24 
REMARK   10  A    between atoms: C_24  and  C_25 
ROOT
ATOM      1  S   UNL d   1      45.659  -9.388  -3.884  0.00  0.00    -0.136 SA
ATOM      2  O   UNL d   1      47.327  -8.769  -0.138  0.00  0.00    -0.271 OA
ATOM      3  N   UNL d   1      46.051  -7.758  -1.815  0.00  0.00    -0.293 N 
ATOM      4  C   UNL d   1      46.500  -7.930  -3.196  0.00  0.00     0.187 C 
ATOM      5  CA  UNL d   1      47.939  -8.142  -2.590  0.00  0.00     0.211 C 
ATOM      6  C   UNL d   1      47.153  -8.365  -1.273  0.00  0.00     0.251 C 
ATOM      7  CA  UNL d   1      44.738  -7.773  -1.415  0.00  0.00     0.117 C 
ATOM      8  C   UNL d   1      43.749  -8.170  -2.258  0.00  0.00    -0.013 C 
ATOM      9  C   UNL d   1      44.001  -8.669  -3.668  0.00  0.00     0.115 C 
ENDROOT
BRANCH   5  10
ATOM     10  N   UNL d   1      48.825  -9.168  -3.249  0.00  0.00    -0.339 N 
ATOM     11  C   UNL d   1      49.737  -8.675  -4.180  0.00  0.00     0.275 C 
ATOM     12  O   UNL d   1      50.489  -9.449  -4.774  0.00  0.00    -0.266 OA
ATOM     13  H   UNL d   1      48.916 -10.127  -2.925  0.00  0.00     0.163 HD
BRANCH  11  14
ATOM     14  C   UNL d   1      49.863  -7.185  -4.487  0.00  0.00     0.180 C 
ATOM     15  N   UNL d   1      49.289  -6.497  -5.431  0.00  0.00    -0.126 NA
BRANCH  15  16
ATOM     16  O   UNL d   1      48.415  -7.177  -6.276  0.00  0.00    -0.261 OA
ATOM     17  C   UNL d   1      47.427  -6.209  -6.684  0.00  0.00     0.240 C 
ENDBRANCH  15  16
BRANCH  14  18
ATOM     18  C   UNL d   1      50.844  -6.419  -3.707  0.00  0.00     0.102 A 
ATOM     19  N   UNL d   1      50.831  -5.028  -3.698  0.00  0.00    -0.222 NA
ATOM     20  C   UNL d   1      51.691  -4.573  -2.824  0.00  0.00     0.164 A 
ATOM     21  S   UNL d   1      52.645  -5.760  -2.035  0.00  0.00    -0.062 SA
ATOM     22  C   UNL d   1      51.807  -6.984  -2.888  0.00  0.00     0.087 A 
BRANCH  20  23
ATOM     23  N   UNL d   1      51.828  -3.270  -2.548  0.00  0.00    -0.378 N 
ATOM     24  H   UNL d   1      51.068  -2.769  -2.108  0.00  0.00     0.158 HD
ATOM     25  H   UNL d   1      52.760  -2.941  -2.330  0.00  0.00     0.158 HD
ENDBRANCH  20  23
ENDBRANCH  14  18
ENDBRANCH  11  14
ENDBRANCH   5  10
BRANCH   7  26
ATOM     26  C   UNL d   1      44.402  -7.191  -0.057  0.00  0.00     0.194 C 
ATOM     27  OXT UNL d   1      44.243  -7.870   0.947  0.00  0.00    -0.645 OA
BRANCH  26  28
ATOM     28  O   UNL d   1      44.157  -5.865  -0.039  0.00  0.00    -0.772 OA
ATOM     29  H   UNL d   1      44.950  -5.287  -0.035  0.00  0.00     0.167 HD
ENDBRANCH  26  28
ENDBRANCH   7  26
BRANCH   8  30
ATOM     30  C   UNL d   1      42.276  -8.229  -1.877  0.00  0.00     0.216 C 
BRANCH  30  31
ATOM     31  O   UNL d   1      41.803  -6.922  -1.520  0.00  0.00    -0.317 OA
BRANCH  31  32
ATOM     32  C   UNL d   1      40.657  -6.874  -0.793  0.00  0.00     0.255 C 
ATOM     33  O   UNL d   1      40.414  -6.073   0.099  0.00  0.00    -0.266 OA
ATOM     34  C   UNL d   1      39.713  -7.943  -1.252  0.00  0.00     0.126 C 
ENDBRANCH  31  32
ENDBRANCH  30  31
ENDBRANCH   8  30
TORSDOF 10
ENDMDL
MODEL 4
REMARK VINA RESULT:      -5.9     14.989     18.270
REMARK  10 active torsions:
REMARK  status: ('A' for Active; 'I' for Inactive)
REMARK    1  A    between atoms: O_4  and  C_21 
REMARK    2  A    between atoms: O_4  and  C_26 
REMARK    3  A    between atoms: O_5  and  C_22 
REMARK    4  A    between atoms: O_8  and  N_12 
REMARK    5  A    between atoms: CA_16  and  N_11 
REMARK       I    between atoms: N_11  and  C_23 
REMARK    6  A    between atoms: N_14  and  C_29 
REMARK    7  A    between atoms: CA_18  and  C_22 
REMARK    8  A    between atoms: C_19  and  C_21 
REMARK    9  A    between atoms: C_23  and  C_24 
REMARK   10  A    between atoms: C_24  and  C_25 
ROOT
ATOM      1  S   UNL d   1      22.470  -1.005 -11.661  0.00  0.00    -0.136 SA
ATOM      2  O   UNL d   1      23.115  -5.092 -11.378  0.00  0.00    -0.271 OA
ATOM      3  N   UNL d   1      22.767  -3.347 -12.894  0.00  0.00    -0.293 N 
ATOM      4  C   UNL d   1      21.715  -2.383 -12.577  0.00  0.00     0.187 C 
ATOM      5  CA  UNL d   1      21.055  -3.538 -11.733  0.00  0.00     0.211 C 
ATOM      6  C   UNL d   1      22.463  -4.177 -11.847  0.00  0.00     0.251 C 
ATOM      7  CA  UNL d   1      23.979  -3.023 -13.451  0.00  0.00     0.117 C 
ATOM      8  C   UNL d   1      24.383  -1.729 -13.556  0.00  0.00    -0.013 C 
ATOM      9  C   UNL d   1      23.577  -0.556 -13.035  0.00  0.00     0.115 C 
ENDROOT
BRANCH   5  10
ATOM     10  N   UNL d   1      20.384  -3.157 -10.439  0.00  0.00    -0.339 N 
ATOM     11  C   UNL d   1      19.024  -3.446 -10.352  0.00  0.00     0.275 C 
ATOM     12  O   UNL d   1      18.397  -3.154  -9.332  0.00  0.00    -0.266 OA
ATOM     13  H   UNL d   1      20.889  -2.887  -9.599  0.00  0.00     0.163 HD
BRANCH  11  14
ATOM     14  C   UNL d   1      18.265  -4.143 -11.477  0.00  0.00     0.180 C 
ATOM     15  N   UNL d   1      17.514  -3.616 -12.401  0.00  0.00    -0.126 NA
BRANCH  15  16
ATOM     16  O   UNL d   1      17.387  -2.230 -12.408  0.00  0.00    -0.261 OA
ATOM     17  C   UNL d   1      16.012  -1.957 -12.073  0.00  0.00     0.240 C 
ENDBRANCH  15  16
BRANCH  14  18
ATOM     18  C   UNL d   1      18.265  -5.613 -11.479  0.00  0.00     0.102 A 
ATOM     19  N   UNL d   1      18.651  -6.333 -12.603  0.00  0.00    -0.222 NA
ATOM     20  C   UNL d   1      18.715  -7.610 -12.324  0.00  0.00     0.164 A 
ATOM     21  S   UNL d   1      18.218  -8.047 -10.742  0.00  0.00    -0.062 SA
ATOM     22  C   UNL d   1      17.947  -6.396 -10.382  0.00  0.00     0.087 A 
BRANCH  20  23
ATOM     23  N   UNL d   1      19.142  -8.526 -13.201  0.00  0.00    -0.378 N 
ATOM     24  H   UNL d   1      19.111  -8.323 -14.191  0.00  0.00     0.158 HD
ATOM     25  H   UNL d   1      19.886  -9.141 -12.898  0.00  0.00     0.158 HD
ENDBRANCH  20  23
ENDBRANCH  14  18
ENDBRANCH  11  14
ENDBRANCH   5  10
BRANCH   7  26
ATOM     26  C   UNL d   1      24.789  -4.135 -14.086  0.00  0.00     0.194 C 
ATOM     27  OXT UNL d   1      24.638  -4.503 -15.242  0.00  0.00    -0.645 OA
BRANCH  26  28
ATOM     28  O   UNL d   1      25.618  -4.797 -13.254  0.00  0.00    -0.772 OA
ATOM     29  H   UNL d   1      25.845  -4.330 -12.421  0.00  0.00     0.167 HD
ENDBRANCH  26  28
ENDBRANCH   7  26
BRANCH   8  30
ATOM     30  C   UNL d   1      25.719  -1.299 -14.146  0.00  0.00     0.216 C 
BRANCH  30  31
ATOM     31  O   UNL d   1      26.261  -0.201 -13.397  0.00  0.00    -0.317 OA
BRANCH  31  32
ATOM     32  C   UNL d   1      27.558   0.116 -13.648  0.00  0.00     0.255 C 
ATOM     33  O   UNL d   1      28.305   0.708 -12.882  0.00  0.00    -0.266 OA
ATOM     34  C   UNL d   1      27.954  -0.379 -15.005  0.00  0.00     0.126 C 
ENDBRANCH  31  32
ENDBRANCH  30  31
ENDBRANCH   8  30
TORSDOF 10
ENDMDL
MODEL 5
REMARK VINA RESULT:      -5.7     28.662     30.178
REMARK  10 active torsions:
REMARK  status: ('A' for Active; 'I' for Inactive)
REMARK    1  A    between atoms: O_4  and  C_21 
REMARK    2  A    between atoms: O_4  and  C_26 
REMARK    3  A    between atoms: O_5  and  C_22 
REMARK    4  A    between atoms: O_8  and  N_12 
REMARK    5  A    between atoms: CA_16  and  N_11 
REMARK       I    between atoms: N_11  and  C_23 
REMARK    6  A    between atoms: N_14  and  C_29 
REMARK    7  A    between atoms: CA_18  and  C_22 
REMARK    8  A    between atoms: C_19  and  C_21 
REMARK    9  A    between atoms: C_23  and  C_24 
REMARK   10  A    between atoms: C_24  and  C_25 
ROOT
ATOM      1  S   UNL d   1      15.089 -12.069  11.275  0.00  0.00    -0.136 SA
ATOM      2  O   UNL d   1      17.770  -9.044  12.201  0.00  0.00    -0.271 OA
ATOM      3  N   UNL d   1      16.387 -10.678  13.139  0.00  0.00    -0.293 N 
ATOM      4  C   UNL d   1      15.039 -10.813  12.588  0.00  0.00     0.187 C 
ATOM      5  CA  UNL d   1      15.179  -9.305  12.155  0.00  0.00     0.211 C 
ATOM      6  C   UNL d   1      16.688  -9.564  12.400  0.00  0.00     0.251 C 
ATOM      7  CA  UNL d   1      17.179 -11.731  13.527  0.00  0.00     0.117 C 
ATOM      8  C   UNL d   1      16.844 -13.013  13.224  0.00  0.00    -0.013 C 
ATOM      9  C   UNL d   1      15.624 -13.390  12.408  0.00  0.00     0.115 C 
ENDROOT
BRANCH   5  10
ATOM     10  N   UNL d   1      14.578  -8.904  10.833  0.00  0.00    -0.339 N 
ATOM     11  C   UNL d   1      13.711  -7.813  10.865  0.00  0.00     0.275 C 
ATOM     12  O   UNL d   1      13.166  -7.429   9.829  0.00  0.00    -0.266 OA
ATOM     13  H   UNL d   1      14.903  -9.253   9.935  0.00  0.00     0.163 HD
BRANCH  11  14
ATOM     14  C   UNL d   1      13.419  -7.042  12.149  0.00  0.00     0.180 C 
ATOM     15  N   UNL d   1      12.415  -7.175  12.967  0.00  0.00    -0.126 NA
BRANCH  15  16
ATOM     16  O   UNL d   1      11.478  -8.162  12.674  0.00  0.00    -0.261 OA
ATOM     17  C   UNL d   1      11.647  -9.180  13.681  0.00  0.00     0.240 C 
ENDBRANCH  15  16
BRANCH  14  18
ATOM     18  C   UNL d   1      14.305  -5.915  12.474  0.00  0.00     0.102 A 
ATOM     19  N   UNL d   1      15.538  -5.764  11.849  0.00  0.00    -0.222 NA
ATOM     20  C   UNL d   1      16.077  -4.620  12.183  0.00  0.00     0.164 A 
ATOM     21  S   UNL d   1      15.208  -3.701  13.340  0.00  0.00    -0.062 SA
ATOM     22  C   UNL d   1      13.986  -4.898  13.358  0.00  0.00     0.087 A 
BRANCH  20  23
ATOM     23  N   UNL d   1      17.229  -4.180  11.662  0.00  0.00    -0.378 N 
ATOM     24  H   UNL d   1      17.914  -4.844  11.329  0.00  0.00     0.158 HD
ATOM     25  H   UNL d   1      17.205  -3.289  11.181  0.00  0.00     0.158 HD
ENDBRANCH  20  23
ENDBRANCH  14  18
ENDBRANCH  11  14
ENDBRANCH   5  10
BRANCH   7  26
ATOM     26  C   UNL d   1      18.357 -11.437  14.433  0.00  0.00     0.194 C 
ATOM     27  OXT UNL d   1      19.493 -11.249  14.022  0.00  0.00    -0.645 OA
BRANCH  26  28
ATOM     28  O   UNL d   1      18.107 -11.521  15.755  0.00  0.00    -0.772 OA
ATOM     29  H   UNL d   1      18.623 -12.198  16.243  0.00  0.00     0.167 HD
ENDBRANCH  26  28
ENDBRANCH   7  26
BRANCH   8  30
ATOM     30  C   UNL d   1      17.683 -14.225  13.607  0.00  0.00     0.216 C 
BRANCH  30  31
ATOM     31  O   UNL d   1      18.393 -14.719  12.462  0.00  0.00    -0.317 OA
BRANCH  31  32
ATOM     32  C   UNL d   1      18.180 -16.020  12.135  0.00  0.00     0.255 C 
ATOM     33  O   UNL d   1      17.492 -16.414  11.204  0.00  0.00    -0.266 OA
ATOM     34  C   UNL d   1      18.924 -16.915  13.077  0.00  0.00     0.126 C 
ENDBRANCH  31  32
ENDBRANCH  30  31
ENDBRANCH   8  30
TORSDOF 10
ENDMDL
MODEL 6
REMARK VINA RESULT:      -5.7      5.107      9.019
REMARK  10 active torsions:
REMARK  status: ('A' for Active; 'I' for Inactive)
REMARK    1  A    between atoms: O_4  and  C_21 
REMARK    2  A    between atoms: O_4  and  C_26 
REMARK    3  A    between atoms: O_5  and  C_22 
REMARK    4  A    between atoms: O_8  and  N_12 
REMARK    5  A    between atoms: CA_16  and  N_11 
REMARK       I    between atoms: N_11  and  C_23 
REMARK    6  A    between atoms: N_14  and  C_29 
REMARK    7  A    between atoms: CA_18  and  C_22 
REMARK    8  A    between atoms: C_19  and  C_21 
REMARK    9  A    between atoms: C_23  and  C_24 
REMARK   10  A    between atoms: C_24  and  C_25 
ROOT
ATOM      1  S   UNL d   1      40.921  -8.105  -6.340  0.00  0.00    -0.136 SA
ATOM      2  O   UNL d   1      41.407  -7.210  -2.320  0.00  0.00    -0.271 OA
ATOM      3  N   UNL d   1      41.495  -8.948  -3.880  0.00  0.00    -0.293 N 
ATOM      4  C   UNL d   1      40.412  -9.028  -4.858  0.00  0.00     0.187 C 
ATOM      5  CA  UNL d   1      39.536  -8.264  -3.794  0.00  0.00     0.211 C 
ATOM      6  C   UNL d   1      40.915  -7.933  -3.167  0.00  0.00     0.251 C 
ATOM      7  CA  UNL d   1      42.817  -9.200  -4.158  0.00  0.00     0.117 C 
ATOM      8  C   UNL d   1      43.253  -9.338  -5.438  0.00  0.00    -0.013 C 
ATOM      9  C   UNL d   1      42.356  -9.180  -6.650  0.00  0.00     0.115 C 
ENDROOT
BRANCH   5  10
ATOM     10  N   UNL d   1      38.554  -7.242  -4.306  0.00  0.00    -0.339 N 
ATOM     11  C   UNL d   1      37.279  -7.291  -3.748  0.00  0.00     0.275 C 
ATOM     12  O   UNL d   1      36.413  -6.499  -4.122  0.00  0.00    -0.266 OA
ATOM     13  H   UNL d   1      38.818  -6.440  -4.872  0.00  0.00     0.163 HD
BRANCH  11  14
ATOM     14  C   UNL d   1      36.907  -8.288  -2.654  0.00  0.00     0.180 C 
ATOM     15  N   UNL d   1      36.134  -9.332  -2.734  0.00  0.00    -0.126 NA
BRANCH  15  16
ATOM     16  O   UNL d   1      35.579  -9.624  -3.977  0.00  0.00    -0.261 OA
ATOM     17  C   UNL d   1      34.181  -9.286  -3.875  0.00  0.00     0.240 C 
ENDBRANCH  15  16
BRANCH  14  18
ATOM     18  C   UNL d   1      37.368  -7.993  -1.290  0.00  0.00     0.102 A 
ATOM     19  N   UNL d   1      36.976  -6.834  -0.630  0.00  0.00    -0.222 NA
ATOM     20  C   UNL d   1      37.384  -6.860   0.613  0.00  0.00     0.164 A 
ATOM     21  S   UNL d   1      38.348  -8.209   1.047  0.00  0.00    -0.062 SA
ATOM     22  C   UNL d   1      38.164  -8.838  -0.533  0.00  0.00     0.087 A 
BRANCH  20  23
ATOM     23  N   UNL d   1      37.074  -5.907   1.499  0.00  0.00    -0.378 N 
ATOM     24  H   UNL d   1      36.131  -5.544   1.536  0.00  0.00     0.158 HD
ATOM     25  H   UNL d   1      37.581  -5.912   2.376  0.00  0.00     0.158 HD
ENDBRANCH  20  23
ENDBRANCH  14  18
ENDBRANCH  11  14
ENDBRANCH   5  10
BRANCH   7  26
ATOM     26  C   UNL d   1      43.748  -9.472  -2.995  0.00  0.00     0.194 C 
ATOM     27  OXT UNL d   1      43.850 -10.564  -2.455  0.00  0.00    -0.645 OA
BRANCH  26  28
ATOM     28  O   UNL d   1      44.380  -8.392  -2.493  0.00  0.00    -0.772 OA
ATOM     29  H   UNL d   1      43.887  -7.546  -2.552  0.00  0.00     0.167 HD
ENDBRANCH  26  28
ENDBRANCH   7  26
BRANCH   8  30
ATOM     30  C   UNL d   1      44.703  -9.600  -5.820  0.00  0.00     0.216 C 
BRANCH  30  31
ATOM     31  O   UNL d   1      45.021  -8.933  -7.051  0.00  0.00    -0.317 OA
BRANCH  31  32
ATOM     32  C   UNL d   1      46.074  -9.429  -7.750  0.00  0.00     0.255 C 
ATOM     33  O   UNL d   1      47.249  -9.145  -7.563  0.00  0.00    -0.266 OA
ATOM     34  C   UNL d   1      45.591 -10.397  -8.786  0.00  0.00     0.126 C 
ENDBRANCH  31  32
ENDBRANCH  30  31
ENDBRANCH   8  30
TORSDOF 10
ENDMDL
MODEL 7
REMARK VINA RESULT:      -5.7      5.972      9.274
REMARK  10 active torsions:
REMARK  status: ('A' for Active; 'I' for Inactive)
REMARK    1  A    between atoms: O_4  and  C_21 
REMARK    2  A    between atoms: O_4  and  C_26 
REMARK    3  A    between atoms: O_5  and  C_22 
REMARK    4  A    between atoms: O_8  and  N_12 
REMARK    5  A    between atoms: CA_16  and  N_11 
REMARK       I    between atoms: N_11  and  C_23 
REMARK    6  A    between atoms: N_14  and  C_29 
REMARK    7  A    between atoms: CA_18  and  C_22 
REMARK    8  A    between atoms: C_19  and  C_21 
REMARK    9  A    between atoms: C_23  and  C_24 
REMARK   10  A    between atoms: C_24  and  C_25 
ROOT
ATOM      1  S   UNL d   1      42.282  -8.206  -4.127  0.00  0.00    -0.136 SA
ATOM      2  O   UNL d   1      41.540  -5.602  -0.987  0.00  0.00    -0.271 OA
ATOM      3  N   UNL d   1      42.196  -7.786  -1.498  0.00  0.00    -0.293 N 
ATOM      4  C   UNL d   1      41.443  -8.486  -2.538  0.00  0.00     0.187 C 
ATOM      5  CA  UNL d   1      40.248  -7.528  -2.171  0.00  0.00     0.211 C 
ATOM      6  C   UNL d   1      41.363  -6.698  -1.486  0.00  0.00     0.251 C 
ATOM      7  CA  UNL d   1      43.557  -7.869  -1.332  0.00  0.00     0.117 C 
ATOM      8  C   UNL d   1      44.347  -8.453  -2.270  0.00  0.00    -0.013 C 
ATOM      9  C   UNL d   1      43.822  -9.008  -3.580  0.00  0.00     0.115 C 
ENDROOT
BRANCH   5  10
ATOM     10  N   UNL d   1      39.379  -7.038  -3.300  0.00  0.00    -0.339 N 
ATOM     11  C   UNL d   1      38.062  -7.491  -3.295  0.00  0.00     0.275 C 
ATOM     12  O   UNL d   1      37.289  -7.148  -4.191  0.00  0.00    -0.266 OA
ATOM     13  H   UNL d   1      39.641  -6.281  -3.926  0.00  0.00     0.163 HD
BRANCH  11  14
ATOM     14  C   UNL d   1      37.516  -8.395  -2.193  0.00  0.00     0.180 C 
ATOM     15  N   UNL d   1      36.864  -9.516  -2.308  0.00  0.00    -0.126 NA
BRANCH  15  16
ATOM     16  O   UNL d   1      36.642  -9.997  -3.596  0.00  0.00    -0.261 OA
ATOM     17  C   UNL d   1      35.247  -9.759  -3.872  0.00  0.00     0.240 C 
ENDBRANCH  15  16
BRANCH  14  18
ATOM     18  C   UNL d   1      37.619  -7.908  -0.811  0.00  0.00     0.102 A 
ATOM     19  N   UNL d   1      38.056  -8.737   0.216  0.00  0.00    -0.222 NA
ATOM     20  C   UNL d   1      38.210  -8.050   1.319  0.00  0.00     0.164 A 
ATOM     21  S   UNL d   1      37.743  -6.403   1.237  0.00  0.00    -0.062 SA
ATOM     22  C   UNL d   1      37.355  -6.606  -0.418  0.00  0.00     0.087 A 
BRANCH  20  23
ATOM     23  N   UNL d   1      38.701  -8.583   2.445  0.00  0.00    -0.378 N 
ATOM     24  H   UNL d   1      39.075  -9.522   2.433  0.00  0.00     0.158 HD
ATOM     25  H   UNL d   1      39.124  -7.946   3.108  0.00  0.00     0.158 HD
ENDBRANCH  20  23
ENDBRANCH  14  18
ENDBRANCH  11  14
ENDBRANCH   5  10
BRANCH   7  26
ATOM     26  C   UNL d   1      44.137  -7.429  -0.003  0.00  0.00     0.194 C 
ATOM     27  OXT UNL d   1      44.316  -8.188   0.938  0.00  0.00    -0.645 OA
BRANCH  26  28
ATOM     28  O   UNL d   1      44.333  -6.102   0.134  0.00  0.00    -0.772 OA
ATOM     29  H   UNL d   1      43.703  -5.528  -0.352  0.00  0.00     0.167 HD
ENDBRANCH  26  28
ENDBRANCH   7  26
BRANCH   8  30
ATOM     30  C   UNL d   1      45.861  -8.565  -2.159  0.00  0.00     0.216 C 
BRANCH  30  31
ATOM     31  O   UNL d   1      46.285  -9.901  -2.467  0.00  0.00    -0.317 OA
BRANCH  31  32
ATOM     32  C   UNL d   1      46.669 -10.669  -1.415  0.00  0.00     0.255 C 
ATOM     33  O   UNL d   1      46.509 -10.389  -0.235  0.00  0.00    -0.266 OA
ATOM     34  C   UNL d   1      47.312 -11.930  -1.908  0.00  0.00     0.126 C 
ENDBRANCH  31  32
ENDBRANCH  30  31
ENDBRANCH   8  30
TORSDOF 10
ENDMDL
MODEL 8
REMARK VINA RESULT:      -5.6     16.932     19.564
REMARK  10 active torsions:
REMARK  status: ('A' for Active; 'I' for Inactive)
REMARK    1  A    between atoms: O_4  and  C_21 
REMARK    2  A    between atoms: O_4  and  C_26 
REMARK    3  A    between atoms: O_5  and  C_22 
REMARK    4  A    between atoms: O_8  and  N_12 
REMARK    5  A    between atoms: CA_16  and  N_11 
REMARK       I    between atoms: N_11  and  C_23 
REMARK    6  A    between atoms: N_14  and  C_29 
REMARK    7  A    between atoms: CA_18  and  C_22 
REMARK    8  A    between atoms: C_19  and  C_21 
REMARK    9  A    between atoms: C_23  and  C_24 
REMARK   10  A    between atoms: C_24  and  C_25 
ROOT
ATOM      1  S   UNL d   1      21.383  -5.578 -11.198  0.00  0.00    -0.136 SA
ATOM      2  O   UNL d   1      18.650  -3.089  -9.318  0.00  0.00    -0.271 OA
ATOM      3  N   UNL d   1      18.923  -4.560 -11.114  0.00  0.00    -0.293 N 
ATOM      4  C   UNL d   1      20.151  -4.439 -11.899  0.00  0.00     0.187 C 
ATOM      5  CA  UNL d   1      20.189  -2.941 -11.413  0.00  0.00     0.211 C 
ATOM      6  C   UNL d   1      19.180  -3.450 -10.353  0.00  0.00     0.251 C 
ATOM      7  CA  UNL d   1      18.325  -5.751 -10.781  0.00  0.00     0.117 C 
ATOM      8  C   UNL d   1      18.958  -6.936 -10.980  0.00  0.00    -0.013 C 
ATOM      9  C   UNL d   1      20.368  -7.052 -11.527  0.00  0.00     0.115 C 
ENDROOT
BRANCH   5  10
ATOM     10  N   UNL d   1      21.538  -2.346 -11.103  0.00  0.00    -0.339 N 
ATOM     11  C   UNL d   1      22.232  -1.814 -12.188  0.00  0.00     0.275 C 
ATOM     12  O   UNL d   1      23.349  -1.321 -12.022  0.00  0.00    -0.266 OA
ATOM     13  H   UNL d   1      21.867  -2.153 -10.161  0.00  0.00     0.163 HD
BRANCH  11  14
ATOM     14  C   UNL d   1      21.649  -1.795 -13.598  0.00  0.00     0.180 C 
ATOM     15  N   UNL d   1      21.841  -2.640 -14.569  0.00  0.00    -0.126 NA
BRANCH  15  16
ATOM     16  O   UNL d   1      22.662  -3.735 -14.312  0.00  0.00    -0.261 OA
ATOM     17  C   UNL d   1      23.850  -3.533 -15.104  0.00  0.00     0.240 C 
ENDBRANCH  15  16
BRANCH  14  18
ATOM     18  C   UNL d   1      20.855  -0.620 -13.981  0.00  0.00     0.102 A 
ATOM     19  N   UNL d   1      21.180   0.651 -13.522  0.00  0.00    -0.222 NA
ATOM     20  C   UNL d   1      20.433   1.551 -14.109  0.00  0.00     0.164 A 
ATOM     21  S   UNL d   1      19.226   0.938 -15.162  0.00  0.00    -0.062 SA
ATOM     22  C   UNL d   1      19.779  -0.652 -14.853  0.00  0.00     0.087 A 
BRANCH  20  23
ATOM     23  N   UNL d   1      20.589   2.865 -13.915  0.00  0.00    -0.378 N 
ATOM     24  H   UNL d   1      21.378   3.343 -14.329  0.00  0.00     0.158 HD
ATOM     25  H   UNL d   1      19.748   3.417 -13.802  0.00  0.00     0.158 HD
ENDBRANCH  20  23
ENDBRANCH  14  18
ENDBRANCH  11  14
ENDBRANCH   5  10
BRANCH   7  26
ATOM     26  C   UNL d   1      16.880  -5.717 -10.327  0.00  0.00     0.194 C 
ATOM     27  OXT UNL d   1      15.932  -5.737 -11.097  0.00  0.00    -0.645 OA
BRANCH  26  28
ATOM     28  O   UNL d   1      16.691  -5.532  -9.005  0.00  0.00    -0.772 OA
ATOM     29  H   UNL d   1      15.775  -5.310  -8.733  0.00  0.00     0.167 HD
ENDBRANCH  26  28
ENDBRANCH   7  26
BRANCH   8  30
ATOM     30  C   UNL d   1      18.364  -8.291 -10.619  0.00  0.00     0.216 C 
BRANCH  30  31
ATOM     31  O   UNL d   1      17.885  -8.954 -11.798  0.00  0.00    -0.317 OA
BRANCH  31  32
ATOM     32  C   UNL d   1      16.541  -9.127 -11.888  0.00  0.00     0.255 C 
ATOM     33  O   UNL d   1      15.812  -9.506 -10.983  0.00  0.00    -0.266 OA
ATOM     34  C   UNL d   1      16.069  -8.772 -13.265  0.00  0.00     0.126 C 
ENDBRANCH  31  32
ENDBRANCH  30  31
ENDBRANCH   8  30
TORSDOF 10
ENDMDL
MODEL 9
REMARK VINA RESULT:      -5.6     15.134     18.469
REMARK  10 active torsions:
REMARK  status: ('A' for Active; 'I' for Inactive)
REMARK    1  A    between atoms: O_4  and  C_21 
REMARK    2  A    between atoms: O_4  and  C_26 
REMARK    3  A    between atoms: O_5  and  C_22 
REMARK    4  A    between atoms: O_8  and  N_12 
REMARK    5  A    between atoms: CA_16  and  N_11 
REMARK       I    between atoms: N_11  and  C_23 
REMARK    6  A    between atoms: N_14  and  C_29 
REMARK    7  A    between atoms: CA_18  and  C_22 
REMARK    8  A    between atoms: C_19  and  C_21 
REMARK    9  A    between atoms: C_23  and  C_24 
REMARK   10  A    between atoms: C_24  and  C_25 
ROOT
ATOM      1  S   UNL d   1      22.091  -0.268 -11.255  0.00  0.00    -0.136 SA
ATOM      2  O   UNL d   1      23.181  -4.245 -11.694  0.00  0.00    -0.271 OA
ATOM      3  N   UNL d   1      22.559  -2.328 -12.877  0.00  0.00    -0.293 N 
ATOM      4  C   UNL d   1      21.432  -1.555 -12.358  0.00  0.00     0.187 C 
ATOM      5  CA  UNL d   1      20.951  -2.901 -11.694  0.00  0.00     0.211 C 
ATOM      6  C   UNL d   1      22.408  -3.346 -11.974  0.00  0.00     0.251 C 
ATOM      7  CA  UNL d   1      23.694  -1.780 -13.422  0.00  0.00     0.117 C 
ATOM      8  C   UNL d   1      23.951  -0.449 -13.323  0.00  0.00    -0.013 C 
ATOM      9  C   UNL d   1      23.058   0.523 -12.578  0.00  0.00     0.115 C 
ENDROOT
BRANCH   5  10
ATOM     10  N   UNL d   1      20.322  -2.816 -10.328  0.00  0.00    -0.339 N 
ATOM     11  C   UNL d   1      19.190  -3.604 -10.129  0.00  0.00     0.275 C 
ATOM     12  O   UNL d   1      18.608  -3.582  -9.043  0.00  0.00    -0.266 OA
ATOM     13  H   UNL d   1      20.770  -2.379  -9.527  0.00  0.00     0.163 HD
BRANCH  11  14
ATOM     14  C   UNL d   1      18.642  -4.530 -11.211  0.00  0.00     0.180 C 
ATOM     15  N   UNL d   1      19.111  -5.675 -11.615  0.00  0.00    -0.126 NA
BRANCH  15  16
ATOM     16  O   UNL d   1      20.249  -6.161 -10.977  0.00  0.00    -0.261 OA
ATOM     17  C   UNL d   1      20.919  -6.995 -11.944  0.00  0.00     0.240 C 
ENDBRANCH  15  16
BRANCH  14  18
ATOM     18  C   UNL d   1      17.503  -4.042 -12.000  0.00  0.00     0.102 A 
ATOM     19  N   UNL d   1      16.203  -4.121 -11.516  0.00  0.00    -0.222 NA
ATOM     20  C   UNL d   1      15.381  -3.494 -12.318  0.00  0.00     0.164 A 
ATOM     21  S   UNL d   1      16.082  -2.864 -13.751  0.00  0.00    -0.062 SA
ATOM     22  C   UNL d   1      17.614  -3.425 -13.235  0.00  0.00     0.087 A 
BRANCH  20  23
ATOM     23  N   UNL d   1      14.079  -3.342 -12.051  0.00  0.00    -0.378 N 
ATOM     24  H   UNL d   1      13.743  -2.464 -11.678  0.00  0.00     0.158 HD
ATOM     25  H   UNL d   1      13.427  -3.854 -12.633  0.00  0.00     0.158 HD
ENDBRANCH  20  23
ENDBRANCH  14  18
ENDBRANCH  11  14
ENDBRANCH   5  10
BRANCH   7  26
ATOM     26  C   UNL d   1      24.578  -2.673 -14.269  0.00  0.00     0.194 C 
ATOM     27  OXT UNL d   1      24.426  -2.825 -15.472  0.00  0.00    -0.645 OA
BRANCH  26  28
ATOM     28  O   UNL d   1      25.483  -3.406 -13.589  0.00  0.00    -0.772 OA
ATOM     29  H   UNL d   1      25.185  -4.300 -13.314  0.00  0.00     0.167 HD
ENDBRANCH  26  28
ENDBRANCH   7  26
BRANCH   8  30
ATOM     30  C   UNL d   1      25.196   0.223 -13.887  0.00  0.00     0.216 C 
BRANCH  30  31
ATOM     31  O   UNL d   1      26.245   0.226 -12.908  0.00  0.00    -0.317 OA
BRANCH  31  32
ATOM     32  C   UNL d   1      27.516   0.229 -13.388  0.00  0.00     0.255 C 
ATOM     33  O   UNL d   1      28.497   0.658 -12.797  0.00  0.00    -0.266 OA
ATOM     34  C   UNL d   1      27.551  -0.388 -14.752  0.00  0.00     0.126 C 
ENDBRANCH  31  32
ENDBRANCH  30  31
ENDBRANCH   8  30
TORSDOF 10
ENDMDL
