@<TRIPOS>MOLECULE
5742673
 47 49 0 0 0
SMALL
GASTEIGER

@<TRIPOS>ATOM
      1 S           1.3752    1.0022    0.6084 S.3     1  UNL11      -0.1310
      2 S          -5.2263    5.6806   -3.4405 S.3     1  UNL11      -0.0604
      3 O          -2.5229   -0.3147    1.1782 O.2     1  UNL11      -0.2731
      4 O           1.1701   -4.1313    0.5175 O.3     1  UNL11      -0.4603
      5 O          -2.1913   -2.7850    0.1541 O.3     1  UNL11      -0.4763
      6 OXT        -0.3913   -4.0486   -0.2588 O.2     1  UNL11      -0.2437
      7 O          -1.6488    5.0262    0.3695 O.2     1  UNL11      -0.2683
      8 O          -0.9342    1.9821   -1.9817 O.2     1  UNL11      -0.3964
      9 O           0.6417   -3.5737    2.6817 O.2     1  UNL11      -0.2512
     10 N          -0.6784   -0.4890   -0.2319 N.am    1  UNL11      -0.2489
     11 N          -1.2237    2.7755    0.4458 N.am    1  UNL11      -0.2963
     12 N          -1.9172    2.8553   -2.4502 N.2     1  UNL11      -0.0779
     13 N          -3.3995    6.0017   -1.6592 N.pl3   1  UNL11      -0.2233
     14 N          -4.6405    7.9190   -2.1229 N.pl3   1  UNL11      -0.3375
     15 C           0.0231    0.7452   -0.5847 C.3     1  UNL11       0.1042
     16 CA         -1.3251    1.4816   -0.2842 C.3     1  UNL11       0.1286
     17 C          -1.6952    0.1398    0.4204 C.2     1  UNL11       0.2440
     18 CA         -0.0413   -1.6801    0.0210 C.2     1  UNL11       0.1252
     19 C           1.3087   -1.7418    0.1641 C.2     1  UNL11       0.0056
     20 C           2.2180   -0.5293    0.1363 C.3     1  UNL11       0.0220
     21 C           2.0772   -3.0241    0.4372 C.3     1  UNL11       0.1166
     22 C          -0.8653   -2.9477   -0.0082 C.2     1  UNL11       0.3515
     23 C          -1.7138    3.9241   -0.1741 C.2     1  UNL11       0.2684
     24 C          -2.2842    3.7678   -1.5931 C.2     1  UNL11       0.1897
     25 C          -3.3134    4.6806   -2.0915 C.3     1  UNL11       0.1067
     26 C           0.5179   -4.2898    1.6977 C.2     1  UNL11       0.3043
     27 C          -4.2516    4.3354   -3.0509 C.3     1  UNL11       0.0067
     28 C          -0.3909   -5.4774    1.6228 C.3     1  UNL11       0.0332
     29 C          -4.3523    6.6251   -2.3076 C.3     1  UNL11       0.1562
     30 C          -0.1604    1.5693   -3.1074 C.3     1  UNL11       0.1072
     31 H           0.3256    0.7879   -1.6366 H       1  UNL11       0.0644
     32 HA         -1.9607    1.6162   -1.1719 H       1  UNL11       0.0622
     33 H           2.6429   -0.4177   -0.8673 H       1  UNL11       0.0424
     34 H           3.0537   -0.6441    0.8323 H       1  UNL11       0.0424
     35 H          -1.0899    2.8119    1.4585 H       1  UNL11       0.1499
     36 H           2.8068   -3.2226   -0.3552 H       1  UNL11       0.0746
     37 H           2.6818   -2.9611    1.3513 H       1  UNL11       0.0746
     38 H          -2.4796   -1.9017    0.4722 H       1  UNL11       0.2954
     39 H          -4.3832    3.3799   -3.5422 H       1  UNL11       0.0716
     40 H          -1.0716   -5.3718    0.7728 H       1  UNL11       0.0342
     41 H           0.2015   -6.3906    1.5291 H       1  UNL11       0.0342
     42 H          -0.9900   -5.5353    2.5364 H       1  UNL11       0.0342
     43 H          -0.8092    1.2947   -3.9475 H       1  UNL11       0.0687
     44 H           0.5066    2.3821   -3.4110 H       1  UNL11       0.0687
     45 H           0.4380    0.6981   -2.8309 H       1  UNL11       0.0687
     46 H          -5.5174    8.2753   -2.4831 H       1  UNL11       0.1442
     47 H          -4.3300    8.3471   -1.2587 H       1  UNL11       0.1442
@<TRIPOS>BOND
     1     1    15    1
     2     1    20    1
     3     2    27   ar
     4     2    29   ar
     5     3    17    2
     6     4    21    1
     7     4    26    1
     8     5    22    1
     9     5    38    1
    10     6    22    2
    11     7    23    2
    12     8    12    1
    13     8    30    1
    14     9    26    2
    15    10    15    1
    16    10    17   am
    17    10    18    1
    18    16    11    1
    19    11    23   am
    20    11    35    1
    21    12    24    2
    22    13    25   ar
    23    13    29   ar
    24    14    29    1
    25    14    46    1
    26    14    47    1
    27    15    16    1
    28    15    31    1
    29    16    17    1
    30    16    32    1
    31    18    19    2
    32    18    22    1
    33    19    20    1
    34    19    21    1
    35    20    33    1
    36    20    34    1
    37    21    36    1
    38    21    37    1
    39    23    24    1
    40    24    25    1
    41    25    27   ar
    42    26    28    1
    43    27    39    1
    44    28    40    1
    45    28    41    1
    46    28    42    1
    47    30    43    1
    48    30    44    1
    49    30    45    1
