@<TRIPOS>MOLECULE
5742673
 47 49 0 0 0
SMALL
GASTEIGER

@<TRIPOS>ATOM
      1 S           1.3815    0.9655    0.6621 S.3     1  UNL11      -0.1310
      2 S          -6.2650    2.0123    4.3421 S.3     1  UNL11      -0.0604
      3 O          -2.4775   -0.4077    1.2796 O.2     1  UNL11      -0.2731
      4 O           3.2985   -2.7727    1.1685 O.3     1  UNL11      -0.4603
      5 O          -2.0172   -2.8522   -0.7287 O.3     1  UNL11      -0.4763
      6 OXT        -0.4560   -4.0776    0.3030 O.2     1  UNL11      -0.2437
      7 O          -2.2703    4.2676    1.8889 O.2     1  UNL11      -0.2683
      8 O          -3.2832    1.3188   -0.5889 O.2     1  UNL11      -0.3964
      9 O           2.1408   -2.1816    3.0612 O.2     1  UNL11      -0.2512
     10 N          -0.6635   -0.5161   -0.1611 N.am    1  UNL11      -0.2489
     11 N          -1.2664    2.7722    0.4663 N.am    1  UNL11      -0.2963
     12 N          -3.9280    1.3394    0.6449 N.2     1  UNL11      -0.0779
     13 N          -4.0184    3.1272    3.7710 N.pl3   1  UNL11      -0.2233
     14 N          -5.0131    3.9322    5.7066 N.pl3   1  UNL11      -0.3375
     15 C           0.0107    0.7252   -0.5151 C.3     1  UNL11       0.1042
     16 CA         -1.3551    1.4345   -0.1913 C.3     1  UNL11       0.1286
     17 C          -1.6673    0.0785    0.5460 C.2     1  UNL11       0.2440
     18 CA         -0.0199   -1.7114    0.0276 C.2     1  UNL11       0.1252
     19 C           1.3371   -1.7771    0.1530 C.2     1  UNL11       0.0056
     20 C           2.2353   -0.5528    0.1304 C.3     1  UNL11       0.0220
     21 C           2.1062   -3.0617    0.4186 C.3     1  UNL11       0.1166
     22 C          -0.8476   -2.9792   -0.0648 C.2     1  UNL11       0.3515
     23 C          -2.2950    3.1739    1.3375 C.2     1  UNL11       0.2684
     24 C          -3.4922    2.2098    1.5156 C.2     1  UNL11       0.1897
     25 C          -4.3082    2.2549    2.7288 C.3     1  UNL11       0.1067
     26 C           3.1437   -2.6075    2.5083 C.2     1  UNL11       0.3043
     27 C          -5.4840    1.5375    2.8992 C.3     1  UNL11       0.0067
     28 C           4.3862   -3.0407    3.2248 C.3     1  UNL11       0.0332
     29 C          -4.9893    3.1148    4.6499 C.3     1  UNL11       0.1562
     30 C          -4.2502    0.9082   -1.5669 C.3     1  UNL11       0.1072
     31 H           0.3017    0.7921   -1.5672 H       1  UNL11       0.0644
     32 HA         -2.0582    1.4979   -1.0438 H       1  UNL11       0.0622
     33 H           2.6261   -0.4104   -0.8838 H       1  UNL11       0.0424
     34 H           3.1004   -0.6767    0.7876 H       1  UNL11       0.0424
     35 H          -0.3744    3.2634    0.5421 H       1  UNL11       0.1499
     36 H           1.5048   -3.7772    0.9881 H       1  UNL11       0.0746
     37 H           2.3663   -3.5976   -0.5022 H       1  UNL11       0.0746
     38 H          -2.3649   -1.9359   -0.7921 H       1  UNL11       0.2954
     39 H          -5.9374    0.8239    2.2229 H       1  UNL11       0.0716
     40 H           4.6080   -4.0828    2.9848 H       1  UNL11       0.0342
     41 H           5.2200   -2.3933    2.9421 H       1  UNL11       0.0342
     42 H           4.2288   -2.9605    4.3041 H       1  UNL11       0.0342
     43 H          -4.9267    0.1428   -1.1657 H       1  UNL11       0.0687
     44 H          -4.8463    1.7643   -1.9053 H       1  UNL11       0.0687
     45 H          -3.7243    0.4838   -2.4250 H       1  UNL11       0.0687
     46 H          -5.6596    3.7502    6.4600 H       1  UNL11       0.1442
     47 H          -4.1393    4.3682    5.9756 H       1  UNL11       0.1442
@<TRIPOS>BOND
     1     1    15    1
     2     1    20    1
     3     2    27   ar
     4     2    29   ar
     5     3    17    2
     6     4    21    1
     7     4    26    1
     8     5    22    1
     9     5    38    1
    10     6    22    2
    11     7    23    2
    12     8    12    1
    13     8    30    1
    14     9    26    2
    15    10    15    1
    16    10    17   am
    17    10    18    1
    18    16    11    1
    19    11    23   am
    20    11    35    1
    21    12    24    2
    22    13    25   ar
    23    13    29   ar
    24    14    29    1
    25    14    46    1
    26    14    47    1
    27    15    16    1
    28    15    31    1
    29    16    17    1
    30    16    32    1
    31    18    19    2
    32    18    22    1
    33    19    20    1
    34    19    21    1
    35    20    33    1
    36    20    34    1
    37    21    36    1
    38    21    37    1
    39    23    24    1
    40    24    25    1
    41    25    27   ar
    42    26    28    1
    43    27    39    1
    44    28    40    1
    45    28    41    1
    46    28    42    1
    47    30    43    1
    48    30    44    1
    49    30    45    1
