REMARK  10 active torsions:
REMARK  status: ('A' for Active; 'I' for Inactive)
REMARK    1  A    between atoms: O_4  and  C_21 
REMARK    2  A    between atoms: O_4  and  C_26 
REMARK    3  A    between atoms: O_5  and  C_22 
REMARK    4  A    between atoms: O_8  and  N_12 
REMARK    5  A    between atoms: CA_16  and  N_11 
REMARK       I    between atoms: N_11  and  C_23 
REMARK    6  A    between atoms: N_14  and  C_29 
REMARK    7  A    between atoms: CA_18  and  C_22 
REMARK    8  A    between atoms: C_19  and  C_21 
REMARK    9  A    between atoms: C_23  and  C_24 
REMARK   10  A    between atoms: C_24  and  C_25 
ROOT
ATOM      1  S   UNL d   1       1.356   0.987   0.658  0.00  0.00    -0.136 SA
ATOM      2  O   UNL d   1      -2.504  -0.392   1.259  0.00  0.00    -0.271 OA
ATOM      3  N   UNL d   1      -0.679  -0.504  -0.181  0.00  0.00    -0.293 N 
ATOM      4  C   UNL d   1      -0.011   0.749  -0.517  0.00  0.00     0.187 C 
ATOM      5  CA  UNL d   1      -1.385   1.446  -0.187  0.00  0.00     0.211 C 
ATOM      6  C   UNL d   1      -1.696   0.095   0.517  0.00  0.00     0.251 C 
ATOM      7  CA  UNL d   1      -0.035  -1.699   0.026  0.00  0.00     0.117 C 
ATOM      8  C   UNL d   1       1.318  -1.759   0.160  0.00  0.00    -0.013 C 
ATOM      9  C   UNL d   1       2.212  -0.532   0.134  0.00  0.00     0.115 C 
ENDROOT
BRANCH   5  10
ATOM     10  N   UNL d   1      -1.345   2.787   0.498  0.00  0.00    -0.339 N 
ATOM     11  C   UNL d   1      -2.397   3.650   0.210  0.00  0.00     0.275 C 
ATOM     12  O   UNL d   1      -2.434   4.772   0.718  0.00  0.00    -0.266 OA
ATOM     13  H   UNL d   1      -0.722   3.004   1.268  0.00  0.00     0.163 HD
BRANCH  11  14
ATOM     14  C   UNL d   1      -3.552   3.247  -0.709  0.00  0.00     0.180 C 
ATOM     15  N   UNL d   1      -4.300   4.002  -1.461  0.00  0.00    -0.126 NA
BRANCH  15  16
ATOM     16  O   UNL d   1      -4.031   5.368  -1.462  0.00  0.00    -0.261 OA
ATOM     17  C   UNL d   1      -5.288   6.024  -1.705  0.00  0.00     0.240 C 
ENDBRANCH  15  16
BRANCH  14  18
ATOM     18  C   UNL d   1      -3.978   1.843  -0.670  0.00  0.00     0.102 A 
ATOM     19  N   UNL d   1      -3.769   1.046   0.449  0.00  0.00    -0.222 NA
ATOM     20  C   UNL d   1      -4.371  -0.107   0.304  0.00  0.00     0.164 A 
ATOM     21  S   UNL d   1      -5.129  -0.363  -1.212  0.00  0.00    -0.062 SA
ATOM     22  C   UNL d   1      -4.670   1.213  -1.693  0.00  0.00     0.087 A 
BRANCH  20  23
ATOM     23  N   UNL d   1      -4.407  -1.034   1.269  0.00  0.00    -0.378 N 
ATOM     24  H   UNL d   1      -4.674  -1.983   1.048  0.00  0.00     0.158 HD
ATOM     25  H   UNL d   1      -3.760  -0.921   2.041  0.00  0.00     0.158 HD
ENDBRANCH  20  23
ENDBRANCH  14  18
ENDBRANCH  11  14
ENDBRANCH   5  10
BRANCH   7  26
ATOM     26  C   UNL d   1      -0.852  -2.976  -0.043  0.00  0.00     0.194 C 
ATOM     27  OXT UNL d   1      -0.383  -4.068  -0.334  0.00  0.00    -0.645 OA
BRANCH  26  28
ATOM     28  O   UNL d   1      -2.183  -2.818   0.104  0.00  0.00    -0.772 OA
ATOM     29  H   UNL d   1      -2.462  -1.974   0.522  0.00  0.00     0.167 HD
ENDBRANCH  26  28
ENDBRANCH   7  26
BRANCH   8  30
ATOM     30  C   UNL d   1       2.096  -3.040   0.423  0.00  0.00     0.216 C 
BRANCH  30  31
ATOM     31  O   UNL d   1       1.192  -4.154   0.506  0.00  0.00    -0.317 OA
BRANCH  31  32
ATOM     32  C   UNL d   1       0.548  -4.321   1.690  0.00  0.00     0.255 C 
ATOM     33  O   UNL d   1       0.982  -4.000   2.787  0.00  0.00    -0.266 OA
ATOM     34  C   UNL d   1      -0.792  -4.950   1.462  0.00  0.00     0.126 C 
ENDBRANCH  31  32
ENDBRANCH  30  31
ENDBRANCH   8  30
TORSDOF 10
