@<TRIPOS>MOLECULE
5742673
 47 49 0 0 0
SMALL
GASTEIGER

@<TRIPOS>ATOM
      1 S           1.3635    0.9920    0.6523 S.3     1  UNL11      -0.1310
      2 S          -2.5542    1.1446   -3.5047 S.3     1  UNL11      -0.0604
      3 O          -2.4979   -0.3879    1.2731 O.2     1  UNL11      -0.2731
      4 O           1.2875   -3.9639    1.1678 O.3     1  UNL11      -0.4603
      5 O          -2.1826   -2.8076    0.1257 O.3     1  UNL11      -0.4763
      6 OXT        -0.3829   -4.0597   -0.3123 O.2     1  UNL11      -0.2437
      7 O          -0.5728    4.9292    0.3038 O.2     1  UNL11      -0.2683
      8 O           1.6056    5.1440   -1.3814 O.2     1  UNL11      -0.3964
      9 O           1.4145   -2.7478    3.1105 O.2     1  UNL11      -0.2512
     10 N          -0.6763   -0.5033   -0.1856 N.am    1  UNL11      -0.2489
     11 N          -1.3243    2.7911    0.5003 N.am    1  UNL11      -0.2963
     12 N           0.9299    4.1944   -2.1420 N.2     1  UNL11      -0.0779
     13 N          -0.1456    2.0334   -3.5287 N.pl3   1  UNL11      -0.2233
     14 N          -0.5479    0.3425   -5.0743 N.pl3   1  UNL11      -0.3375
     15 C          -0.0052    0.7523   -0.5222 C.3     1  UNL11       0.1042
     16 CA         -1.3771    1.4519   -0.1886 C.3     1  UNL11       0.1286
     17 C          -1.6854    0.1055    0.5130 C.2     1  UNL11       0.2440
     18 CA         -0.0323   -1.6960    0.0336 C.2     1  UNL11       0.1252
     19 C           1.3189   -1.7532    0.1669 C.2     1  UNL11       0.0056
     20 C           2.2156   -0.5309    0.1372 C.3     1  UNL11       0.0220
     21 C           2.0963   -3.0363    0.4287 C.3     1  UNL11       0.1166
     22 C          -0.8534   -2.9677   -0.0279 C.2     1  UNL11       0.3515
     23 C          -0.6721    3.8065   -0.1946 C.2     1  UNL11       0.2684
     24 C          -0.0832    3.5937   -1.5866 C.2     1  UNL11       0.1897
     25 C          -0.8010    2.6832   -2.4890 C.3     1  UNL11       0.1067
     26 C           0.8409   -3.5420    2.3791 C.2     1  UNL11       0.3043
     27 C          -2.1385    2.3485   -2.3621 C.3     1  UNL11       0.0067
     28 C          -0.4767   -4.1820    2.6914 C.3     1  UNL11       0.0332
     29 C          -0.9446    1.1675   -4.0973 C.3     1  UNL11       0.1562
     30 C           2.1167    6.1115   -2.3188 C.3     1  UNL11       0.1072
     31 H           0.2814    0.8169   -1.5772 H       1  UNL11       0.0644
     32 HA         -2.0407    1.5399   -1.0630 H       1  UNL11       0.0622
     33 H           2.6164   -0.4028   -0.8758 H       1  UNL11       0.0424
     34 H           3.0722   -0.6498    0.8071 H       1  UNL11       0.0424
     35 H          -1.8766    3.0259    1.3198 H       1  UNL11       0.1499
     36 H           2.4034   -3.5109   -0.5098 H       1  UNL11       0.0746
     37 H           3.0395   -2.8549    0.9607 H       1  UNL11       0.0746
     38 H          -2.4649   -1.9575    0.5274 H       1  UNL11       0.2954
     39 H          -2.8517    2.7032   -1.6294 H       1  UNL11       0.0716
     40 H          -1.1973   -3.9494    1.9030 H       1  UNL11       0.0342
     41 H          -0.3499   -5.2625    2.7911 H       1  UNL11       0.0342
     42 H          -0.8583   -3.7833    3.6356 H       1  UNL11       0.0342
     43 H           2.5116    5.6196   -3.2173 H       1  UNL11       0.0687
     44 H           1.3272    6.8118   -2.6163 H       1  UNL11       0.0687
     45 H           2.9291    6.6670   -1.8469 H       1  UNL11       0.0687
     46 H          -1.2380   -0.1330   -5.6389 H       1  UNL11       0.1442
     47 H           0.3264    0.5641   -5.5348 H       1  UNL11       0.1442
@<TRIPOS>BOND
     1     1    15    1
     2     1    20    1
     3     2    27   ar
     4     2    29   ar
     5     3    17    2
     6     4    21    1
     7     4    26    1
     8     5    22    1
     9     5    38    1
    10     6    22    2
    11     7    23    2
    12     8    12    1
    13     8    30    1
    14     9    26    2
    15    10    15    1
    16    10    17   am
    17    10    18    1
    18    16    11    1
    19    11    23   am
    20    11    35    1
    21    12    24    2
    22    13    25   ar
    23    13    29   ar
    24    14    29    1
    25    14    46    1
    26    14    47    1
    27    15    16    1
    28    15    31    1
    29    16    17    1
    30    16    32    1
    31    18    19    2
    32    18    22    1
    33    19    20    1
    34    19    21    1
    35    20    33    1
    36    20    34    1
    37    21    36    1
    38    21    37    1
    39    23    24    1
    40    24    25    1
    41    25    27   ar
    42    26    28    1
    43    27    39    1
    44    28    40    1
    45    28    41    1
    46    28    42    1
    47    30    43    1
    48    30    44    1
    49    30    45    1
