REMARK  10 active torsions:
REMARK  status: ('A' for Active; 'I' for Inactive)
REMARK    1  A    between atoms: O_4  and  C_21 
REMARK    2  A    between atoms: O_4  and  C_26 
REMARK    3  A    between atoms: O_5  and  C_22 
REMARK    4  A    between atoms: O_8  and  N_12 
REMARK    5  A    between atoms: CA_16  and  N_11 
REMARK       I    between atoms: N_11  and  C_23 
REMARK    6  A    between atoms: N_14  and  C_29 
REMARK    7  A    between atoms: CA_18  and  C_22 
REMARK    8  A    between atoms: C_19  and  C_21 
REMARK    9  A    between atoms: C_23  and  C_24 
REMARK   10  A    between atoms: C_24  and  C_25 
ROOT
ATOM      1  S   UNL d   1       1.375   1.002   0.608  0.00  0.00    -0.136 SA
ATOM      2  O   UNL d   1      -2.523  -0.315   1.178  0.00  0.00    -0.271 OA
ATOM      3  N   UNL d   1      -0.678  -0.489  -0.232  0.00  0.00    -0.293 N 
ATOM      4  C   UNL d   1       0.023   0.745  -0.585  0.00  0.00     0.187 C 
ATOM      5  CA  UNL d   1      -1.325   1.482  -0.284  0.00  0.00     0.211 C 
ATOM      6  C   UNL d   1      -1.695   0.140   0.420  0.00  0.00     0.251 C 
ATOM      7  CA  UNL d   1      -0.041  -1.680   0.021  0.00  0.00     0.117 C 
ATOM      8  C   UNL d   1       1.309  -1.742   0.164  0.00  0.00    -0.013 C 
ATOM      9  C   UNL d   1       2.218  -0.529   0.136  0.00  0.00     0.115 C 
ENDROOT
BRANCH   5  10
ATOM     10  N   UNL d   1      -1.224   2.776   0.446  0.00  0.00    -0.339 N 
ATOM     11  C   UNL d   1      -1.714   3.924  -0.174  0.00  0.00     0.275 C 
ATOM     12  O   UNL d   1      -1.649   5.026   0.369  0.00  0.00    -0.266 OA
ATOM     13  H   UNL d   1      -1.090   2.812   1.458  0.00  0.00     0.163 HD
BRANCH  11  14
ATOM     14  C   UNL d   1      -2.284   3.768  -1.593  0.00  0.00     0.180 C 
ATOM     15  N   UNL d   1      -1.917   2.855  -2.450  0.00  0.00    -0.126 NA
BRANCH  15  16
ATOM     16  O   UNL d   1      -0.934   1.982  -1.982  0.00  0.00    -0.261 OA
ATOM     17  C   UNL d   1      -0.160   1.569  -3.107  0.00  0.00     0.240 C 
ENDBRANCH  15  16
BRANCH  14  18
ATOM     18  C   UNL d   1      -3.313   4.681  -2.091  0.00  0.00     0.102 A 
ATOM     19  N   UNL d   1      -3.400   6.002  -1.659  0.00  0.00    -0.222 NA
ATOM     20  C   UNL d   1      -4.352   6.625  -2.308  0.00  0.00     0.164 A 
ATOM     21  S   UNL d   1      -5.226   5.681  -3.441  0.00  0.00    -0.062 SA
ATOM     22  C   UNL d   1      -4.252   4.335  -3.051  0.00  0.00     0.087 A 
BRANCH  20  23
ATOM     23  N   UNL d   1      -4.641   7.919  -2.123  0.00  0.00    -0.378 N 
ATOM     24  H   UNL d   1      -5.517   8.275  -2.483  0.00  0.00     0.158 HD
ATOM     25  H   UNL d   1      -4.330   8.347  -1.259  0.00  0.00     0.158 HD
ENDBRANCH  20  23
ENDBRANCH  14  18
ENDBRANCH  11  14
ENDBRANCH   5  10
BRANCH   7  26
ATOM     26  C   UNL d   1      -0.865  -2.948  -0.008  0.00  0.00     0.194 C 
ATOM     27  OXT UNL d   1      -0.391  -4.049  -0.259  0.00  0.00    -0.645 OA
BRANCH  26  28
ATOM     28  O   UNL d   1      -2.191  -2.785   0.154  0.00  0.00    -0.772 OA
ATOM     29  H   UNL d   1      -2.480  -1.902   0.472  0.00  0.00     0.167 HD
ENDBRANCH  26  28
ENDBRANCH   7  26
BRANCH   8  30
ATOM     30  C   UNL d   1       2.077  -3.024   0.437  0.00  0.00     0.216 C 
BRANCH  30  31
ATOM     31  O   UNL d   1       1.170  -4.131   0.517  0.00  0.00    -0.317 OA
BRANCH  31  32
ATOM     32  C   UNL d   1       0.518  -4.290   1.698  0.00  0.00     0.255 C 
ATOM     33  O   UNL d   1       0.642  -3.574   2.682  0.00  0.00    -0.266 OA
ATOM     34  C   UNL d   1      -0.391  -5.477   1.623  0.00  0.00     0.126 C 
ENDBRANCH  31  32
ENDBRANCH  30  31
ENDBRANCH   8  30
TORSDOF 10
