@<TRIPOS>MOLECULE
5742673
 47 49 0 0 0
SMALL
GASTEIGER

@<TRIPOS>ATOM
      1 S           1.3561    0.9874    0.6585 S.3     1  UNL11      -0.1310
      2 S          -5.1289   -0.3633   -1.2117 S.3     1  UNL11      -0.0604
      3 O          -2.5042   -0.3922    1.2590 O.2     1  UNL11      -0.2731
      4 O           1.1922   -4.1535    0.5058 O.3     1  UNL11      -0.4603
      5 O          -2.1831   -2.8185    0.1045 O.3     1  UNL11      -0.4763
      6 OXT        -0.3827   -4.0681   -0.3335 O.2     1  UNL11      -0.2437
      7 O          -2.4344    4.7716    0.7177 O.2     1  UNL11      -0.2683
      8 O          -4.0307    5.3678   -1.4620 O.2     1  UNL11      -0.3964
      9 O           0.9821   -3.9999    2.7872 O.2     1  UNL11      -0.2512
     10 N          -0.6795   -0.5042   -0.1811 N.am    1  UNL11      -0.2489
     11 N          -1.3446    2.7869    0.4983 N.am    1  UNL11      -0.2963
     12 N          -4.3003    4.0024   -1.4608 N.2     1  UNL11      -0.0779
     13 N          -3.7694    1.0462    0.4494 N.pl3   1  UNL11      -0.2233
     14 N          -4.4071   -1.0338    1.2690 N.pl3   1  UNL11      -0.3375
     15 C          -0.0108    0.7491   -0.5173 C.3     1  UNL11       0.1042
     16 CA         -1.3846    1.4457   -0.1871 C.3     1  UNL11       0.1286
     17 C          -1.6960    0.0950    0.5168 C.2     1  UNL11       0.2440
     18 CA         -0.0355   -1.6992    0.0265 C.2     1  UNL11       0.1252
     19 C           1.3178   -1.7587    0.1604 C.2     1  UNL11       0.0056
     20 C           2.2125   -0.5317    0.1340 C.3     1  UNL11       0.0220
     21 C           2.0957   -3.0400    0.4233 C.3     1  UNL11       0.1166
     22 C          -0.8517   -2.9760   -0.0433 C.2     1  UNL11       0.3515
     23 C          -2.3969    3.6499    0.2096 C.2     1  UNL11       0.2684
     24 C          -3.5524    3.2465   -0.7093 C.2     1  UNL11       0.1897
     25 C          -3.9779    1.8430   -0.6699 C.3     1  UNL11       0.1067
     26 C           0.5477   -4.3214    1.6899 C.2     1  UNL11       0.3043
     27 C          -4.6697    1.2129   -1.6932 C.3     1  UNL11       0.0067
     28 C          -0.7921   -4.9501    1.4618 C.3     1  UNL11       0.0332
     29 C          -4.3707   -0.1066    0.3040 C.3     1  UNL11       0.1562
     30 C          -5.2882    6.0242   -1.7052 C.3     1  UNL11       0.1072
     31 H           0.2770    0.8120   -1.5717 H       1  UNL11       0.0644
     32 HA         -2.0521    1.5251   -1.0647 H       1  UNL11       0.0622
     33 H           2.6113   -0.3976   -0.8785 H       1  UNL11       0.0424
     34 H           3.0720   -0.6522    0.8005 H       1  UNL11       0.0424
     35 H          -0.7221    3.0041    1.2685 H       1  UNL11       0.1499
     36 H           2.8202   -3.2376   -0.3737 H       1  UNL11       0.0746
     37 H           2.7059   -2.9845    1.3334 H       1  UNL11       0.0746
     38 H          -2.4624   -1.9738    0.5224 H       1  UNL11       0.2954
     39 H          -4.9682    1.6182   -2.6501 H       1  UNL11       0.0716
     40 H          -1.3787   -4.3358    0.7738 H       1  UNL11       0.0342
     41 H          -0.6646   -5.9599    1.0641 H       1  UNL11       0.0342
     42 H          -1.3300   -5.0114    2.4124 H       1  UNL11       0.0342
     43 H          -5.8754    5.4851   -2.4610 H       1  UNL11       0.0687
     44 H          -5.8762    6.0870   -0.7815 H       1  UNL11       0.0687
     45 H          -5.0982    7.0333   -2.0764 H       1  UNL11       0.0687
     46 H          -4.6739   -1.9833    1.0476 H       1  UNL11       0.1442
     47 H          -3.7605   -0.9206    2.0413 H       1  UNL11       0.1442
@<TRIPOS>BOND
     1     1    15    1
     2     1    20    1
     3     2    27   ar
     4     2    29   ar
     5     3    17    2
     6     4    21    1
     7     4    26    1
     8     5    22    1
     9     5    38    1
    10     6    22    2
    11     7    23    2
    12     8    12    1
    13     8    30    1
    14     9    26    2
    15    10    15    1
    16    10    17   am
    17    10    18    1
    18    16    11    1
    19    11    23   am
    20    11    35    1
    21    12    24    2
    22    13    25   ar
    23    13    29   ar
    24    14    29    1
    25    14    46    1
    26    14    47    1
    27    15    16    1
    28    15    31    1
    29    16    17    1
    30    16    32    1
    31    18    19    2
    32    18    22    1
    33    19    20    1
    34    19    21    1
    35    20    33    1
    36    20    34    1
    37    21    36    1
    38    21    37    1
    39    23    24    1
    40    24    25    1
    41    25    27   ar
    42    26    28    1
    43    27    39    1
    44    28    40    1
    45    28    41    1
    46    28    42    1
    47    30    43    1
    48    30    44    1
    49    30    45    1
