REMARK  10 active torsions:
REMARK  status: ('A' for Active; 'I' for Inactive)
REMARK    1  A    between atoms: O_4  and  C_21 
REMARK    2  A    between atoms: O_4  and  C_26 
REMARK    3  A    between atoms: O_5  and  C_22 
REMARK    4  A    between atoms: O_8  and  N_12 
REMARK    5  A    between atoms: CA_16  and  N_11 
REMARK       I    between atoms: N_11  and  C_23 
REMARK    6  A    between atoms: N_14  and  C_29 
REMARK    7  A    between atoms: CA_18  and  C_22 
REMARK    8  A    between atoms: C_19  and  C_21 
REMARK    9  A    between atoms: C_23  and  C_24 
REMARK   10  A    between atoms: C_24  and  C_25 
ROOT
ATOM      1  S   UNL d   1       1.381   0.966   0.662  0.00  0.00    -0.136 SA
ATOM      2  O   UNL d   1      -2.478  -0.408   1.280  0.00  0.00    -0.271 OA
ATOM      3  N   UNL d   1      -0.663  -0.516  -0.161  0.00  0.00    -0.293 N 
ATOM      4  C   UNL d   1       0.011   0.725  -0.515  0.00  0.00     0.187 C 
ATOM      5  CA  UNL d   1      -1.355   1.435  -0.191  0.00  0.00     0.211 C 
ATOM      6  C   UNL d   1      -1.667   0.079   0.546  0.00  0.00     0.251 C 
ATOM      7  CA  UNL d   1      -0.020  -1.711   0.028  0.00  0.00     0.117 C 
ATOM      8  C   UNL d   1       1.337  -1.777   0.153  0.00  0.00    -0.013 C 
ATOM      9  C   UNL d   1       2.235  -0.553   0.130  0.00  0.00     0.115 C 
ENDROOT
BRANCH   5  10
ATOM     10  N   UNL d   1      -1.266   2.772   0.466  0.00  0.00    -0.339 N 
ATOM     11  C   UNL d   1      -2.295   3.174   1.337  0.00  0.00     0.275 C 
ATOM     12  O   UNL d   1      -2.270   4.268   1.889  0.00  0.00    -0.266 OA
ATOM     13  H   UNL d   1      -0.374   3.263   0.542  0.00  0.00     0.163 HD
BRANCH  11  14
ATOM     14  C   UNL d   1      -3.492   2.210   1.516  0.00  0.00     0.180 C 
ATOM     15  N   UNL d   1      -3.928   1.339   0.645  0.00  0.00    -0.126 NA
BRANCH  15  16
ATOM     16  O   UNL d   1      -3.283   1.319  -0.589  0.00  0.00    -0.261 OA
ATOM     17  C   UNL d   1      -4.250   0.908  -1.567  0.00  0.00     0.240 C 
ENDBRANCH  15  16
BRANCH  14  18
ATOM     18  C   UNL d   1      -4.308   2.255   2.729  0.00  0.00     0.102 A 
ATOM     19  N   UNL d   1      -4.018   3.127   3.771  0.00  0.00    -0.222 NA
ATOM     20  C   UNL d   1      -4.989   3.115   4.650  0.00  0.00     0.164 A 
ATOM     21  S   UNL d   1      -6.265   2.012   4.342  0.00  0.00    -0.062 SA
ATOM     22  C   UNL d   1      -5.484   1.538   2.899  0.00  0.00     0.087 A 
BRANCH  20  23
ATOM     23  N   UNL d   1      -5.013   3.932   5.707  0.00  0.00    -0.378 N 
ATOM     24  H   UNL d   1      -5.660   3.750   6.460  0.00  0.00     0.158 HD
ATOM     25  H   UNL d   1      -4.139   4.368   5.976  0.00  0.00     0.158 HD
ENDBRANCH  20  23
ENDBRANCH  14  18
ENDBRANCH  11  14
ENDBRANCH   5  10
BRANCH   7  26
ATOM     26  C   UNL d   1      -0.848  -2.979  -0.065  0.00  0.00     0.194 C 
ATOM     27  OXT UNL d   1      -0.456  -4.078   0.303  0.00  0.00    -0.645 OA
BRANCH  26  28
ATOM     28  O   UNL d   1      -2.017  -2.852  -0.729  0.00  0.00    -0.772 OA
ATOM     29  H   UNL d   1      -2.365  -1.936  -0.792  0.00  0.00     0.167 HD
ENDBRANCH  26  28
ENDBRANCH   7  26
BRANCH   8  30
ATOM     30  C   UNL d   1       2.106  -3.062   0.419  0.00  0.00     0.216 C 
BRANCH  30  31
ATOM     31  O   UNL d   1       3.299  -2.773   1.169  0.00  0.00    -0.317 OA
BRANCH  31  32
ATOM     32  C   UNL d   1       3.144  -2.607   2.508  0.00  0.00     0.255 C 
ATOM     33  O   UNL d   1       2.141  -2.182   3.061  0.00  0.00    -0.266 OA
ATOM     34  C   UNL d   1       4.386  -3.041   3.225  0.00  0.00     0.126 C 
ENDBRANCH  31  32
ENDBRANCH  30  31
ENDBRANCH   8  30
TORSDOF 10
