REMARK  10 active torsions:
REMARK  status: ('A' for Active; 'I' for Inactive)
REMARK    1  A    between atoms: O_4  and  C_21 
REMARK    2  A    between atoms: O_4  and  C_26 
REMARK    3  A    between atoms: O_5  and  C_22 
REMARK    4  A    between atoms: O_8  and  N_12 
REMARK    5  A    between atoms: CA_16  and  N_11 
REMARK       I    between atoms: N_11  and  C_23 
REMARK    6  A    between atoms: N_14  and  C_29 
REMARK    7  A    between atoms: CA_18  and  C_22 
REMARK    8  A    between atoms: C_19  and  C_21 
REMARK    9  A    between atoms: C_23  and  C_24 
REMARK   10  A    between atoms: C_24  and  C_25 
ROOT
ATOM      1  S   UNL d   1       1.363   0.992   0.652  0.00  0.00    -0.136 SA
ATOM      2  O   UNL d   1      -2.498  -0.388   1.273  0.00  0.00    -0.271 OA
ATOM      3  N   UNL d   1      -0.676  -0.503  -0.186  0.00  0.00    -0.293 N 
ATOM      4  C   UNL d   1      -0.005   0.752  -0.522  0.00  0.00     0.187 C 
ATOM      5  CA  UNL d   1      -1.377   1.452  -0.189  0.00  0.00     0.211 C 
ATOM      6  C   UNL d   1      -1.685   0.105   0.513  0.00  0.00     0.251 C 
ATOM      7  CA  UNL d   1      -0.032  -1.696   0.034  0.00  0.00     0.117 C 
ATOM      8  C   UNL d   1       1.319  -1.753   0.167  0.00  0.00    -0.013 C 
ATOM      9  C   UNL d   1       2.216  -0.531   0.137  0.00  0.00     0.115 C 
ENDROOT
BRANCH   5  10
ATOM     10  N   UNL d   1      -1.324   2.791   0.500  0.00  0.00    -0.339 N 
ATOM     11  C   UNL d   1      -0.672   3.807  -0.195  0.00  0.00     0.275 C 
ATOM     12  O   UNL d   1      -0.573   4.929   0.304  0.00  0.00    -0.266 OA
ATOM     13  H   UNL d   1      -1.877   3.026   1.320  0.00  0.00     0.163 HD
BRANCH  11  14
ATOM     14  C   UNL d   1      -0.083   3.594  -1.587  0.00  0.00     0.180 C 
ATOM     15  N   UNL d   1       0.930   4.194  -2.142  0.00  0.00    -0.126 NA
BRANCH  15  16
ATOM     16  O   UNL d   1       1.606   5.144  -1.381  0.00  0.00    -0.261 OA
ATOM     17  C   UNL d   1       2.117   6.112  -2.319  0.00  0.00     0.240 C 
ENDBRANCH  15  16
BRANCH  14  18
ATOM     18  C   UNL d   1      -0.801   2.683  -2.489  0.00  0.00     0.102 A 
ATOM     19  N   UNL d   1      -0.146   2.033  -3.529  0.00  0.00    -0.222 NA
ATOM     20  C   UNL d   1      -0.945   1.167  -4.097  0.00  0.00     0.164 A 
ATOM     21  S   UNL d   1      -2.554   1.145  -3.505  0.00  0.00    -0.062 SA
ATOM     22  C   UNL d   1      -2.139   2.349  -2.362  0.00  0.00     0.087 A 
BRANCH  20  23
ATOM     23  N   UNL d   1      -0.548   0.343  -5.074  0.00  0.00    -0.378 N 
ATOM     24  H   UNL d   1      -1.238  -0.133  -5.639  0.00  0.00     0.158 HD
ATOM     25  H   UNL d   1       0.326   0.564  -5.535  0.00  0.00     0.158 HD
ENDBRANCH  20  23
ENDBRANCH  14  18
ENDBRANCH  11  14
ENDBRANCH   5  10
BRANCH   7  26
ATOM     26  C   UNL d   1      -0.853  -2.968  -0.028  0.00  0.00     0.194 C 
ATOM     27  OXT UNL d   1      -0.383  -4.060  -0.312  0.00  0.00    -0.645 OA
BRANCH  26  28
ATOM     28  O   UNL d   1      -2.183  -2.808   0.126  0.00  0.00    -0.772 OA
ATOM     29  H   UNL d   1      -2.465  -1.958   0.527  0.00  0.00     0.167 HD
ENDBRANCH  26  28
ENDBRANCH   7  26
BRANCH   8  30
ATOM     30  C   UNL d   1       2.096  -3.036   0.429  0.00  0.00     0.216 C 
BRANCH  30  31
ATOM     31  O   UNL d   1       1.288  -3.964   1.168  0.00  0.00    -0.317 OA
BRANCH  31  32
ATOM     32  C   UNL d   1       0.841  -3.542   2.379  0.00  0.00     0.255 C 
ATOM     33  O   UNL d   1       1.415  -2.748   3.111  0.00  0.00    -0.266 OA
ATOM     34  C   UNL d   1      -0.477  -4.182   2.691  0.00  0.00     0.126 C 
ENDBRANCH  31  32
ENDBRANCH  30  31
ENDBRANCH   8  30
TORSDOF 10
