REMARK  10 active torsions:
REMARK  status: ('A' for Active; 'I' for Inactive)
REMARK    1  A    between atoms: O_4  and  C_21 
REMARK    2  A    between atoms: O_4  and  C_26 
REMARK    3  A    between atoms: O_5  and  C_22 
REMARK    4  A    between atoms: O_8  and  N_12 
REMARK    5  A    between atoms: CA_16  and  N_11 
REMARK       I    between atoms: N_11  and  C_23 
REMARK    6  A    between atoms: N_14  and  C_29 
REMARK    7  A    between atoms: CA_18  and  C_22 
REMARK    8  A    between atoms: C_19  and  C_21 
REMARK    9  A    between atoms: C_23  and  C_24 
REMARK   10  A    between atoms: C_24  and  C_25 
ROOT
ATOM      1  S   UNL d   1       1.373   0.984   0.616  0.00  0.00    -0.136 SA
ATOM      2  O   UNL d   1      -2.543  -0.335   1.144  0.00  0.00    -0.271 OA
ATOM      3  N   UNL d   1      -0.674  -0.498  -0.241  0.00  0.00    -0.293 N 
ATOM      4  C   UNL d   1       0.027   0.735  -0.585  0.00  0.00     0.187 C 
ATOM      5  CA  UNL d   1      -1.322   1.472  -0.292  0.00  0.00     0.211 C 
ATOM      6  C   UNL d   1      -1.707   0.126   0.400  0.00  0.00     0.251 C 
ATOM      7  CA  UNL d   1      -0.043  -1.692   0.008  0.00  0.00     0.117 C 
ATOM      8  C   UNL d   1       1.308  -1.756   0.156  0.00  0.00    -0.013 C 
ATOM      9  C   UNL d   1       2.217  -0.545   0.134  0.00  0.00     0.115 C 
ENDROOT
BRANCH   5  10
ATOM     10  N   UNL d   1      -1.230   2.763   0.442  0.00  0.00    -0.339 N 
ATOM     11  C   UNL d   1      -2.289   3.134   1.269  0.00  0.00     0.275 C 
ATOM     12  O   UNL d   1      -2.276   4.192   1.889  0.00  0.00    -0.266 OA
ATOM     13  H   UNL d   1      -0.333   3.228   0.595  0.00  0.00     0.163 HD
BRANCH  11  14
ATOM     14  C   UNL d   1      -3.502   2.187   1.317  0.00  0.00     0.180 C 
ATOM     15  N   UNL d   1      -4.319   2.068   2.326  0.00  0.00    -0.126 NA
BRANCH  15  16
ATOM     16  O   UNL d   1      -4.024   2.890   3.414  0.00  0.00    -0.261 OA
ATOM     17  C   UNL d   1      -4.460   2.209   4.591  0.00  0.00     0.240 C 
ENDBRANCH  15  16
BRANCH  14  18
ATOM     18  C   UNL d   1      -3.819   1.315   0.184  0.00  0.00     0.102 A 
ATOM     19  N   UNL d   1      -4.443   0.080   0.355  0.00  0.00    -0.222 NA
ATOM     20  C   UNL d   1      -4.681  -0.468  -0.811  0.00  0.00     0.164 A 
ATOM     21  S   UNL d   1      -4.153   0.423  -2.177  0.00  0.00    -0.062 SA
ATOM     22  C   UNL d   1      -3.572   1.646  -1.139  0.00  0.00     0.087 A 
BRANCH  20  23
ATOM     23  N   UNL d   1      -5.302  -1.645  -0.955  0.00  0.00    -0.378 N 
ATOM     24  H   UNL d   1      -5.248  -2.113  -1.853  0.00  0.00     0.158 HD
ATOM     25  H   UNL d   1      -5.318  -2.264  -0.155  0.00  0.00     0.158 HD
ENDBRANCH  20  23
ENDBRANCH  14  18
ENDBRANCH  11  14
ENDBRANCH   5  10
BRANCH   7  26
ATOM     26  C   UNL d   1      -0.865  -2.963  -0.029  0.00  0.00     0.194 C 
ATOM     27  OXT UNL d   1      -0.468  -4.032   0.403  0.00  0.00    -0.645 OA
BRANCH  26  28
ATOM     28  O   UNL d   1      -2.042  -2.872  -0.680  0.00  0.00    -0.772 OA
ATOM     29  H   UNL d   1      -2.353  -1.964  -0.887  0.00  0.00     0.167 HD
ENDBRANCH  26  28
ENDBRANCH   7  26
BRANCH   8  30
ATOM     30  C   UNL d   1       2.076  -3.040   0.428  0.00  0.00     0.216 C 
BRANCH  30  31
ATOM     31  O   UNL d   1       1.390  -4.159  -0.150  0.00  0.00    -0.317 OA
BRANCH  31  32
ATOM     32  C   UNL d   1       1.572  -4.353  -1.481  0.00  0.00     0.255 C 
ATOM     33  O   UNL d   1       1.299  -3.550  -2.362  0.00  0.00    -0.266 OA
ATOM     34  C   UNL d   1       2.172  -5.703  -1.724  0.00  0.00     0.126 C 
ENDBRANCH  31  32
ENDBRANCH  30  31
ENDBRANCH   8  30
TORSDOF 10
