@<TRIPOS>MOLECULE
5742673
 47 49 0 0 0
SMALL
GASTEIGER

@<TRIPOS>ATOM
      1 S           1.3726    0.9842    0.6161 S.3     1  UNL11      -0.1310
      2 S          -4.1533    0.4228   -2.1772 S.3     1  UNL11      -0.0604
      3 O          -2.5427   -0.3348    1.1439 O.2     1  UNL11      -0.2731
      4 O           1.3896   -4.1586   -0.1498 O.3     1  UNL11      -0.4603
      5 O          -2.0419   -2.8718   -0.6797 O.3     1  UNL11      -0.4763
      6 OXT        -0.4679   -4.0320    0.4026 O.2     1  UNL11      -0.2437
      7 O          -2.2759    4.1922    1.8888 O.2     1  UNL11      -0.2683
      8 O          -4.0242    2.8898    3.4144 O.2     1  UNL11      -0.3964
      9 O           1.2989   -3.5501   -2.3617 O.2     1  UNL11      -0.2512
     10 N          -0.6741   -0.4980   -0.2412 N.am    1  UNL11      -0.2489
     11 N          -1.2295    2.7625    0.4419 N.am    1  UNL11      -0.2963
     12 N          -4.3191    2.0679    2.3262 N.2     1  UNL11      -0.0779
     13 N          -4.4427    0.0804    0.3549 N.pl3   1  UNL11      -0.2233
     14 N          -5.3022   -1.6453   -0.9553 N.pl3   1  UNL11      -0.3375
     15 C           0.0272    0.7351   -0.5853 C.3     1  UNL11       0.1042
     16 CA         -1.3217    1.4720   -0.2922 C.3     1  UNL11       0.1286
     17 C          -1.7069    0.1263    0.4001 C.2     1  UNL11       0.2440
     18 CA         -0.0428   -1.6924    0.0082 C.2     1  UNL11       0.1252
     19 C           1.3085   -1.7563    0.1560 C.2     1  UNL11       0.0056
     20 C           2.2166   -0.5455    0.1335 C.3     1  UNL11       0.0220
     21 C           2.0761   -3.0398    0.4284 C.3     1  UNL11       0.1166
     22 C          -0.8653   -2.9635   -0.0294 C.2     1  UNL11       0.3515
     23 C          -2.2895    3.1344    1.2687 C.2     1  UNL11       0.2684
     24 C          -3.5016    2.1874    1.3169 C.2     1  UNL11       0.1897
     25 C          -3.8188    1.3146    0.1843 C.3     1  UNL11       0.1067
     26 C           1.5724   -4.3530   -1.4814 C.2     1  UNL11       0.3043
     27 C          -3.5720    1.6457   -1.1389 C.3     1  UNL11       0.0067
     28 C           2.1723   -5.7033   -1.7237 C.3     1  UNL11       0.0332
     29 C          -4.6812   -0.4675   -0.8109 C.3     1  UNL11       0.1562
     30 C          -4.4600    2.2094    4.5909 C.3     1  UNL11       0.1072
     31 H           0.3349    0.7846   -1.6353 H       1  UNL11       0.0644
     32 HA         -1.9529    1.6107   -1.1811 H       1  UNL11       0.0622
     33 H           2.6407   -0.4273   -0.8698 H       1  UNL11       0.0424
     34 H           3.0544   -0.6613    0.8275 H       1  UNL11       0.0424
     35 H          -0.3326    3.2275    0.5950 H       1  UNL11       0.1499
     36 H           3.0862   -2.9910    0.0085 H       1  UNL11       0.0746
     37 H           2.2375   -3.2086    1.5013 H       1  UNL11       0.0746
     38 H          -2.3525   -1.9637   -0.8872 H       1  UNL11       0.2954
     39 H          -3.1089    2.5435   -1.5280 H       1  UNL11       0.0716
     40 H           3.1017   -5.8030   -1.1569 H       1  UNL11       0.0342
     41 H           1.4607   -6.4811   -1.4372 H       1  UNL11       0.0342
     42 H           2.4050   -5.8103   -2.7870 H       1  UNL11       0.0342
     43 H          -5.4601    1.7829    4.4481 H       1  UNL11       0.0687
     44 H          -3.7536    1.4096    4.8350 H       1  UNL11       0.0687
     45 H          -4.5001    2.9185    5.4209 H       1  UNL11       0.0687
     46 H          -5.2485   -2.1127   -1.8530 H       1  UNL11       0.1442
     47 H          -5.3182   -2.2642   -0.1548 H       1  UNL11       0.1442
@<TRIPOS>BOND
     1     1    15    1
     2     1    20    1
     3     2    27   ar
     4     2    29   ar
     5     3    17    2
     6     4    21    1
     7     4    26    1
     8     5    22    1
     9     5    38    1
    10     6    22    2
    11     7    23    2
    12     8    12    1
    13     8    30    1
    14     9    26    2
    15    10    15    1
    16    10    17   am
    17    10    18    1
    18    16    11    1
    19    11    23   am
    20    11    35    1
    21    12    24    2
    22    13    25   ar
    23    13    29   ar
    24    14    29    1
    25    14    46    1
    26    14    47    1
    27    15    16    1
    28    15    31    1
    29    16    17    1
    30    16    32    1
    31    18    19    2
    32    18    22    1
    33    19    20    1
    34    19    21    1
    35    20    33    1
    36    20    34    1
    37    21    36    1
    38    21    37    1
    39    23    24    1
    40    24    25    1
    41    25    27   ar
    42    26    28    1
    43    27    39    1
    44    28    40    1
    45    28    41    1
    46    28    42    1
    47    30    43    1
    48    30    44    1
    49    30    45    1
