MODEL 1
REMARK VINA RESULT:      -7.0      0.000      0.000
REMARK  10 active torsions:
REMARK  status: ('A' for Active; 'I' for Inactive)
REMARK    1  A    between atoms: O_4  and  C_21 
REMARK    2  A    between atoms: O_4  and  C_26 
REMARK    3  A    between atoms: O_5  and  C_22 
REMARK    4  A    between atoms: O_8  and  N_12 
REMARK    5  A    between atoms: CA_16  and  N_11 
REMARK       I    between atoms: N_11  and  C_23 
REMARK    6  A    between atoms: N_14  and  C_29 
REMARK    7  A    between atoms: CA_18  and  C_22 
REMARK    8  A    between atoms: C_19  and  C_21 
REMARK    9  A    between atoms: C_23  and  C_24 
REMARK   10  A    between atoms: C_24  and  C_25 
ROOT
ATOM      1  S   UNL d   1      38.852 -10.000  -5.050  0.00  0.00    -0.136 SA
ATOM      2  O   UNL d   1      38.947  -9.438  -0.933  0.00  0.00    -0.271 OA
ATOM      3  N   UNL d   1      39.019  -8.341  -2.988  0.00  0.00    -0.293 N 
ATOM      4  C   UNL d   1      39.875  -8.890  -4.028  0.00  0.00     0.187 C 
ATOM      5  CA  UNL d   1      40.708  -9.521  -2.840  0.00  0.00     0.211 C 
ATOM      6  C   UNL d   1      39.426  -9.213  -2.029  0.00  0.00     0.251 C 
ATOM      7  CA  UNL d   1      37.783  -7.762  -3.201  0.00  0.00     0.117 C 
ATOM      8  C   UNL d   1      37.158  -7.873  -4.409  0.00  0.00    -0.013 C 
ATOM      9  C   UNL d   1      37.728  -8.657  -5.574  0.00  0.00     0.115 C 
ENDROOT
BRANCH   5  10
ATOM     10  N   UNL d   1      41.305 -10.896  -3.041  0.00  0.00    -0.339 N 
ATOM     11  C   UNL d   1      42.591 -10.950  -3.568  0.00  0.00     0.275 C 
ATOM     12  O   UNL d   1      43.134 -12.033  -3.769  0.00  0.00    -0.266 OA
ATOM     13  H   UNL d   1      40.893 -11.733  -2.652  0.00  0.00     0.163 HD
BRANCH  11  14
ATOM     14  C   UNL d   1      43.404  -9.661  -3.864  0.00  0.00     0.180 C 
ATOM     15  N   UNL d   1      43.601  -9.034  -4.990  0.00  0.00    -0.126 NA
BRANCH  15  16
ATOM     16  O   UNL d   1      43.053  -9.573  -6.151  0.00  0.00    -0.261 OA
ATOM     17  C   UNL d   1      42.387  -8.492  -6.841  0.00  0.00     0.240 C 
ENDBRANCH  15  16
BRANCH  14  18
ATOM     18  C   UNL d   1      44.178  -9.107  -2.747  0.00  0.00     0.102 A 
ATOM     19  N   UNL d   1      43.978  -7.811  -2.292  0.00  0.00    -0.222 NA
ATOM     20  C   UNL d   1      44.646  -7.607  -1.187  0.00  0.00     0.164 A 
ATOM     21  S   UNL d   1      45.650  -8.900  -0.677  0.00  0.00    -0.062 SA
ATOM     22  C   UNL d   1      45.097  -9.833  -2.003  0.00  0.00     0.087 A 
BRANCH  20  23
ATOM     23  N   UNL d   1      44.557  -6.469  -0.489  0.00  0.00    -0.378 N 
ATOM     24  H   UNL d   1      44.586  -5.584  -0.976  0.00  0.00     0.158 HD
ATOM     25  H   UNL d   1      43.974  -6.497   0.340  0.00  0.00     0.158 HD
ENDBRANCH  20  23
ENDBRANCH  14  18
ENDBRANCH  11  14
ENDBRANCH   5  10
BRANCH   7  26
ATOM     26  C   UNL d   1      37.223  -6.873  -2.114  0.00  0.00     0.194 C 
ATOM     27  OXT UNL d   1      36.497  -7.271  -1.210  0.00  0.00    -0.645 OA
BRANCH  26  28
ATOM     28  O   UNL d   1      37.443  -5.552  -2.281  0.00  0.00    -0.772 OA
ATOM     29  H   UNL d   1      38.079  -5.317  -2.991  0.00  0.00     0.167 HD
ENDBRANCH  26  28
ENDBRANCH   7  26
BRANCH   8  30
ATOM     30  C   UNL d   1      35.779  -7.297  -4.701  0.00  0.00     0.216 C 
BRANCH  30  31
ATOM     31  O   UNL d   1      34.760  -8.161  -4.172  0.00  0.00    -0.317 OA
BRANCH  31  32
ATOM     32  C   UNL d   1      33.474  -7.763  -4.352  0.00  0.00     0.255 C 
ATOM     33  O   UNL d   1      32.964  -6.762  -3.872  0.00  0.00    -0.266 OA
ATOM     34  C   UNL d   1      32.763  -8.732  -5.248  0.00  0.00     0.126 C 
ENDBRANCH  31  32
ENDBRANCH  30  31
ENDBRANCH   8  30
TORSDOF 10
ENDMDL
MODEL 2
REMARK VINA RESULT:      -6.8      4.592      7.931
REMARK  10 active torsions:
REMARK  status: ('A' for Active; 'I' for Inactive)
REMARK    1  A    between atoms: O_4  and  C_21 
REMARK    2  A    between atoms: O_4  and  C_26 
REMARK    3  A    between atoms: O_5  and  C_22 
REMARK    4  A    between atoms: O_8  and  N_12 
REMARK    5  A    between atoms: CA_16  and  N_11 
REMARK       I    between atoms: N_11  and  C_23 
REMARK    6  A    between atoms: N_14  and  C_29 
REMARK    7  A    between atoms: CA_18  and  C_22 
REMARK    8  A    between atoms: C_19  and  C_21 
REMARK    9  A    between atoms: C_23  and  C_24 
REMARK   10  A    between atoms: C_24  and  C_25 
ROOT
ATOM      1  S   UNL d   1      39.054  -7.146  -4.904  0.00  0.00    -0.136 SA
ATOM      2  O   UNL d   1      35.179  -6.514  -6.269  0.00  0.00    -0.271 OA
ATOM      3  N   UNL d   1      36.628  -8.107  -5.378  0.00  0.00    -0.293 N 
ATOM      4  C   UNL d   1      37.971  -8.196  -5.929  0.00  0.00     0.187 C 
ATOM      5  CA  UNL d   1      37.345  -7.570  -7.240  0.00  0.00     0.211 C 
ATOM      6  C   UNL d   1      36.193  -7.187  -6.279  0.00  0.00     0.251 C 
ATOM      7  CA  UNL d   1      36.304  -8.274  -4.046  0.00  0.00     0.117 C 
ATOM      8  C   UNL d   1      37.277  -8.308  -3.090  0.00  0.00    -0.013 C 
ATOM      9  C   UNL d   1      38.750  -8.126  -3.391  0.00  0.00     0.115 C 
ENDROOT
BRANCH   5  10
ATOM     10  N   UNL d   1      38.182  -6.591  -8.033  0.00  0.00    -0.339 N 
ATOM     11  C   UNL d   1      38.525  -6.965  -9.328  0.00  0.00     0.275 C 
ATOM     12  O   UNL d   1      39.214  -6.225 -10.025  0.00  0.00    -0.266 OA
ATOM     13  H   UNL d   1      38.339  -5.638  -7.734  0.00  0.00     0.163 HD
BRANCH  11  14
ATOM     14  C   UNL d   1      38.011  -8.288  -9.956  0.00  0.00     0.180 C 
ATOM     15  N   UNL d   1      38.485  -9.499  -9.866  0.00  0.00    -0.126 NA
BRANCH  15  16
ATOM     16  O   UNL d   1      39.653  -9.699  -9.136  0.00  0.00    -0.261 OA
ATOM     17  C   UNL d   1      40.461 -10.634  -9.884  0.00  0.00     0.240 C 
ENDBRANCH  15  16
BRANCH  14  18
ATOM     18  C   UNL d   1      36.890  -8.171 -10.897  0.00  0.00     0.102 A 
ATOM     19  N   UNL d   1      35.725  -8.907 -10.738  0.00  0.00    -0.222 NA
ATOM     20  C   UNL d   1      34.812  -8.504 -11.583  0.00  0.00     0.164 A 
ATOM     21  S   UNL d   1      35.314  -7.306 -12.703  0.00  0.00    -0.062 SA
ATOM     22  C   UNL d   1      36.855  -7.275 -11.955  0.00  0.00     0.087 A 
BRANCH  20  23
ATOM     23  N   UNL d   1      33.563  -8.986 -11.583  0.00  0.00    -0.378 N 
ATOM     24  H   UNL d   1      33.411  -9.972 -11.425  0.00  0.00     0.158 HD
ATOM     25  H   UNL d   1      32.846  -8.367 -11.223  0.00  0.00     0.158 HD
ENDBRANCH  20  23
ENDBRANCH  14  18
ENDBRANCH  11  14
ENDBRANCH   5  10
BRANCH   7  26
ATOM     26  C   UNL d   1      34.863  -8.577  -3.704  0.00  0.00     0.194 C 
ATOM     27  OXT UNL d   1      34.070  -7.743  -3.280  0.00  0.00    -0.645 OA
BRANCH  26  28
ATOM     28  O   UNL d   1      34.526  -9.883  -3.740  0.00  0.00    -0.772 OA
ATOM     29  H   UNL d   1      33.610 -10.074  -4.037  0.00  0.00     0.167 HD
ENDBRANCH  26  28
ENDBRANCH   7  26
BRANCH   8  30
ATOM     30  C   UNL d   1      36.989  -8.448  -1.600  0.00  0.00     0.216 C 
BRANCH  30  31
ATOM     31  O   UNL d   1      36.818  -7.150  -1.006  0.00  0.00    -0.317 OA
BRANCH  31  32
ATOM     32  C   UNL d   1      37.387  -6.962   0.213  0.00  0.00     0.255 C 
ATOM     33  O   UNL d   1      37.005  -6.172   1.063  0.00  0.00    -0.266 OA
ATOM     34  C   UNL d   1      38.558  -7.885   0.374  0.00  0.00     0.126 C 
ENDBRANCH  31  32
ENDBRANCH  30  31
ENDBRANCH   8  30
TORSDOF 10
ENDMDL
MODEL 3
REMARK VINA RESULT:      -6.6     17.208     19.856
REMARK  10 active torsions:
REMARK  status: ('A' for Active; 'I' for Inactive)
REMARK    1  A    between atoms: O_4  and  C_21 
REMARK    2  A    between atoms: O_4  and  C_26 
REMARK    3  A    between atoms: O_5  and  C_22 
REMARK    4  A    between atoms: O_8  and  N_12 
REMARK    5  A    between atoms: CA_16  and  N_11 
REMARK       I    between atoms: N_11  and  C_23 
REMARK    6  A    between atoms: N_14  and  C_29 
REMARK    7  A    between atoms: CA_18  and  C_22 
REMARK    8  A    between atoms: C_19  and  C_21 
REMARK    9  A    between atoms: C_23  and  C_24 
REMARK   10  A    between atoms: C_24  and  C_25 
ROOT
ATOM      1  S   UNL d   1      28.623   0.547 -17.258  0.00  0.00    -0.136 SA
ATOM      2  O   UNL d   1      27.301   0.332 -13.323  0.00  0.00    -0.271 OA
ATOM      3  N   UNL d   1      28.968  -0.369 -14.794  0.00  0.00    -0.293 N 
ATOM      4  C   UNL d   1      28.565  -0.861 -16.102  0.00  0.00     0.187 C 
ATOM      5  CA  UNL d   1      27.184  -1.208 -15.412  0.00  0.00     0.211 C 
ATOM      6  C   UNL d   1      27.700  -0.235 -14.323  0.00  0.00     0.251 C 
ATOM      7  CA  UNL d   1      30.097   0.386 -14.543  0.00  0.00     0.117 C 
ATOM      8  C   UNL d   1      30.813   0.934 -15.568  0.00  0.00    -0.013 C 
ATOM      9  C   UNL d   1      30.418   0.803 -17.024  0.00  0.00     0.115 C 
ENDROOT
BRANCH   5  10
ATOM     10  N   UNL d   1      25.918  -1.022 -16.220  0.00  0.00    -0.339 N 
ATOM     11  C   UNL d   1      24.944  -2.007 -16.093  0.00  0.00     0.275 C 
ATOM     12  O   UNL d   1      23.896  -1.928 -16.729  0.00  0.00    -0.266 OA
ATOM     13  H   UNL d   1      25.688  -0.154 -16.685  0.00  0.00     0.163 HD
BRANCH  11  14
ATOM     14  C   UNL d   1      25.115  -3.199 -15.114  0.00  0.00     0.180 C 
ATOM     15  N   UNL d   1      25.734  -4.335 -15.275  0.00  0.00    -0.126 NA
BRANCH  15  16
ATOM     16  O   UNL d   1      26.325  -4.596 -16.508  0.00  0.00    -0.261 OA
ATOM     17  C   UNL d   1      25.485  -5.561 -17.180  0.00  0.00     0.240 C 
ENDBRANCH  15  16
BRANCH  14  18
ATOM     18  C   UNL d   1      24.378  -3.113 -13.848  0.00  0.00     0.102 A 
ATOM     19  N   UNL d   1      23.865  -4.242 -13.224  0.00  0.00    -0.222 NA
ATOM     20  C   UNL d   1      23.414  -3.941 -12.034  0.00  0.00     0.164 A 
ATOM     21  S   UNL d   1      23.457  -2.277 -11.623  0.00  0.00    -0.062 SA
ATOM     22  C   UNL d   1      24.201  -1.940 -13.129  0.00  0.00     0.087 A 
BRANCH  20  23
ATOM     23  N   UNL d   1      22.947  -4.863 -11.184  0.00  0.00    -0.378 N 
ATOM     24  H   UNL d   1      21.963  -5.091 -11.189  0.00  0.00     0.158 HD
ATOM     25  H   UNL d   1      23.575  -5.628 -10.965  0.00  0.00     0.158 HD
ENDBRANCH  20  23
ENDBRANCH  14  18
ENDBRANCH  11  14
ENDBRANCH   5  10
BRANCH   7  26
ATOM     26  C   UNL d   1      30.600   0.451 -13.119  0.00  0.00     0.194 C 
ATOM     27  OXT UNL d   1      31.530  -0.225 -12.690  0.00  0.00    -0.645 OA
BRANCH  26  28
ATOM     28  O   UNL d   1      29.852   1.195 -12.278  0.00  0.00    -0.772 OA
ATOM     29  H   UNL d   1      28.920   1.332 -12.552  0.00  0.00     0.167 HD
ENDBRANCH  26  28
ENDBRANCH   7  26
BRANCH   8  30
ATOM     30  C   UNL d   1      32.041   1.810 -15.362  0.00  0.00     0.216 C 
BRANCH  30  31
ATOM     31  O   UNL d   1      31.767   3.155 -15.789  0.00  0.00    -0.317 OA
BRANCH  31  32
ATOM     32  C   UNL d   1      32.324   4.150 -15.052  0.00  0.00     0.255 C 
ATOM     33  O   UNL d   1      32.207   4.294 -13.845  0.00  0.00    -0.266 OA
ATOM     34  C   UNL d   1      33.126   5.052 -15.942  0.00  0.00     0.126 C 
ENDBRANCH  31  32
ENDBRANCH  30  31
ENDBRANCH   8  30
TORSDOF 10
ENDMDL
MODEL 4
REMARK VINA RESULT:      -6.5      4.804      7.854
REMARK  10 active torsions:
REMARK  status: ('A' for Active; 'I' for Inactive)
REMARK    1  A    between atoms: O_4  and  C_21 
REMARK    2  A    between atoms: O_4  and  C_26 
REMARK    3  A    between atoms: O_5  and  C_22 
REMARK    4  A    between atoms: O_8  and  N_12 
REMARK    5  A    between atoms: CA_16  and  N_11 
REMARK       I    between atoms: N_11  and  C_23 
REMARK    6  A    between atoms: N_14  and  C_29 
REMARK    7  A    between atoms: CA_18  and  C_22 
REMARK    8  A    between atoms: C_19  and  C_21 
REMARK    9  A    between atoms: C_23  and  C_24 
REMARK   10  A    between atoms: C_24  and  C_25 
ROOT
ATOM      1  S   UNL d   1      39.864  -7.973  -5.278  0.00  0.00    -0.136 SA
ATOM      2  O   UNL d   1      37.199  -5.644  -7.459  0.00  0.00    -0.271 OA
ATOM      3  N   UNL d   1      37.378  -7.518  -6.084  0.00  0.00    -0.293 N 
ATOM      4  C   UNL d   1      38.461  -8.455  -6.340  0.00  0.00     0.187 C 
ATOM      5  CA  UNL d   1      38.423  -7.907  -7.823  0.00  0.00     0.211 C 
ATOM      6  C   UNL d   1      37.632  -6.745  -7.173  0.00  0.00     0.251 C 
ATOM      7  CA  UNL d   1      36.910  -7.169  -4.832  0.00  0.00     0.117 C 
ATOM      8  C   UNL d   1      37.601  -7.513  -3.707  0.00  0.00    -0.013 C 
ATOM      9  C   UNL d   1      38.926  -8.247  -3.733  0.00  0.00     0.115 C 
ENDROOT
BRANCH   5  10
ATOM     10  N   UNL d   1      39.734  -7.763  -8.564  0.00  0.00    -0.339 N 
ATOM     11  C   UNL d   1      39.657  -7.486  -9.925  0.00  0.00     0.275 C 
ATOM     12  O   UNL d   1      40.682  -7.369 -10.592  0.00  0.00    -0.266 OA
ATOM     13  H   UNL d   1      40.624  -7.681  -8.091  0.00  0.00     0.163 HD
BRANCH  11  14
ATOM     14  C   UNL d   1      38.296  -7.261 -10.634  0.00  0.00     0.180 C 
ATOM     15  N   UNL d   1      37.708  -6.152 -10.988  0.00  0.00    -0.126 NA
BRANCH  15  16
ATOM     16  O   UNL d   1      38.330  -4.946 -10.679  0.00  0.00    -0.261 OA
ATOM     17  C   UNL d   1      38.951  -4.471 -11.894  0.00  0.00     0.240 C 
ENDBRANCH  15  16
BRANCH  14  18
ATOM     18  C   UNL d   1      37.465  -8.452 -10.845  0.00  0.00     0.102 A 
ATOM     19  N   UNL d   1      36.079  -8.379 -10.876  0.00  0.00    -0.222 NA
ATOM     20  C   UNL d   1      35.570  -9.524 -11.254  0.00  0.00     0.164 A 
ATOM     21  S   UNL d   1      36.696 -10.797 -11.481  0.00  0.00    -0.062 SA
ATOM     22  C   UNL d   1      37.972  -9.716 -11.111  0.00  0.00     0.087 A 
BRANCH  20  23
ATOM     23  N   UNL d   1      34.259  -9.700 -11.455  0.00  0.00    -0.378 N 
ATOM     24  H   UNL d   1      33.761  -9.068 -12.065  0.00  0.00     0.158 HD
ATOM     25  H   UNL d   1      33.932 -10.659 -11.452  0.00  0.00     0.158 HD
ENDBRANCH  20  23
ENDBRANCH  14  18
ENDBRANCH  11  14
ENDBRANCH   5  10
BRANCH   7  26
ATOM     26  C   UNL d   1      35.537  -6.540  -4.743  0.00  0.00     0.194 C 
ATOM     27  OXT UNL d   1      35.337  -5.377  -4.409  0.00  0.00    -0.645 OA
BRANCH  26  28
ATOM     28  O   UNL d   1      34.504  -7.392  -4.902  0.00  0.00    -0.772 OA
ATOM     29  H   UNL d   1      33.725  -7.222  -4.329  0.00  0.00     0.167 HD
ENDBRANCH  26  28
ENDBRANCH   7  26
BRANCH   8  30
ATOM     30  C   UNL d   1      37.165  -7.126  -2.300  0.00  0.00     0.216 C 
BRANCH  30  31
ATOM     31  O   UNL d   1      38.109  -6.209  -1.724  0.00  0.00    -0.317 OA
BRANCH  31  32
ATOM     32  C   UNL d   1      38.019  -6.007  -0.383  0.00  0.00     0.255 C 
ATOM     33  O   UNL d   1      36.995  -6.077   0.280  0.00  0.00    -0.266 OA
ATOM     34  C   UNL d   1      39.374  -5.696   0.175  0.00  0.00     0.126 C 
ENDBRANCH  31  32
ENDBRANCH  30  31
ENDBRANCH   8  30
TORSDOF 10
ENDMDL
MODEL 5
REMARK VINA RESULT:      -6.5      4.960      8.341
REMARK  10 active torsions:
REMARK  status: ('A' for Active; 'I' for Inactive)
REMARK    1  A    between atoms: O_4  and  C_21 
REMARK    2  A    between atoms: O_4  and  C_26 
REMARK    3  A    between atoms: O_5  and  C_22 
REMARK    4  A    between atoms: O_8  and  N_12 
REMARK    5  A    between atoms: CA_16  and  N_11 
REMARK       I    between atoms: N_11  and  C_23 
REMARK    6  A    between atoms: N_14  and  C_29 
REMARK    7  A    between atoms: CA_18  and  C_22 
REMARK    8  A    between atoms: C_19  and  C_21 
REMARK    9  A    between atoms: C_23  and  C_24 
REMARK   10  A    between atoms: C_24  and  C_25 
ROOT
ATOM      1  S   UNL d   1      36.424  -5.665  -9.474  0.00  0.00    -0.136 SA
ATOM      2  O   UNL d   1      39.524  -7.035  -7.068  0.00  0.00    -0.271 OA
ATOM      3  N   UNL d   1      37.950  -7.676  -8.663  0.00  0.00    -0.293 N 
ATOM      4  C   UNL d   1      36.584  -7.202  -8.507  0.00  0.00     0.187 C 
ATOM      5  CA  UNL d   1      36.929  -7.085  -6.967  0.00  0.00     0.211 C 
ATOM      6  C   UNL d   1      38.387  -7.166  -7.482  0.00  0.00     0.251 C 
ATOM      7  CA  UNL d   1      38.607  -7.820  -9.870  0.00  0.00     0.117 C 
ATOM      8  C   UNL d   1      38.085  -7.297 -11.016  0.00  0.00    -0.013 C 
ATOM      9  C   UNL d   1      36.800  -6.496 -11.058  0.00  0.00     0.115 C 
ENDROOT
BRANCH   5  10
ATOM     10  N   UNL d   1      36.340  -5.928  -6.191  0.00  0.00    -0.339 N 
ATOM     11  C   UNL d   1      35.639  -6.245  -5.031  0.00  0.00     0.275 C 
ATOM     12  O   UNL d   1      35.123  -5.357  -4.358  0.00  0.00    -0.266 OA
ATOM     13  H   UNL d   1      36.582  -4.965  -6.377  0.00  0.00     0.163 HD
BRANCH  11  14
ATOM     14  C   UNL d   1      35.532  -7.705  -4.518  0.00  0.00     0.180 C 
ATOM     15  N   UNL d   1      34.690  -8.647  -4.839  0.00  0.00    -0.126 NA
BRANCH  15  16
ATOM     16  O   UNL d   1      33.684  -8.351  -5.754  0.00  0.00    -0.261 OA
ATOM     17  C   UNL d   1      32.444  -8.302  -5.013  0.00  0.00     0.240 C 
ENDBRANCH  15  16
BRANCH  14  18
ATOM     18  C   UNL d   1      36.427  -8.076  -3.415  0.00  0.00     0.102 A 
ATOM     19  N   UNL d   1      36.599  -7.256  -2.308  0.00  0.00    -0.222 NA
ATOM     20  C   UNL d   1      37.293  -7.873  -1.387  0.00  0.00     0.164 A 
ATOM     21  S   UNL d   1      37.890  -9.421  -1.819  0.00  0.00    -0.062 SA
ATOM     22  C   UNL d   1      37.101  -9.285  -3.334  0.00  0.00     0.087 A 
BRANCH  20  23
ATOM     23  N   UNL d   1      37.528  -7.341  -0.182  0.00  0.00    -0.378 N 
ATOM     24  H   UNL d   1      37.986  -6.443  -0.115  0.00  0.00     0.158 HD
ATOM     25  H   UNL d   1      36.838  -7.537   0.535  0.00  0.00     0.158 HD
ENDBRANCH  20  23
ENDBRANCH  14  18
ENDBRANCH  11  14
ENDBRANCH   5  10
BRANCH   7  26
ATOM     26  C   UNL d   1      39.831  -8.709  -9.904  0.00  0.00     0.194 C 
ATOM     27  OXT UNL d   1      39.791  -9.923 -10.070  0.00  0.00    -0.645 OA
BRANCH  26  28
ATOM     28  O   UNL d   1      40.991  -8.102  -9.578  0.00  0.00    -0.772 OA
ATOM     29  H   UNL d   1      41.677  -8.100 -10.280  0.00  0.00     0.167 HD
ENDBRANCH  26  28
ENDBRANCH   7  26
BRANCH   8  30
ATOM     30  C   UNL d   1      38.775  -7.383 -12.372  0.00  0.00     0.216 C 
BRANCH  30  31
ATOM     31  O   UNL d   1      39.328  -6.105 -12.727  0.00  0.00    -0.317 OA
BRANCH  31  32
ATOM     32  C   UNL d   1      38.775  -5.483 -13.801  0.00  0.00     0.255 C 
ATOM     33  O   UNL d   1      37.636  -5.046 -13.863  0.00  0.00    -0.266 OA
ATOM     34  C   UNL d   1      39.781  -5.396 -14.910  0.00  0.00     0.126 C 
ENDBRANCH  31  32
ENDBRANCH  30  31
ENDBRANCH   8  30
TORSDOF 10
ENDMDL
MODEL 6
REMARK VINA RESULT:      -6.2      4.074      6.169
REMARK  10 active torsions:
REMARK  status: ('A' for Active; 'I' for Inactive)
REMARK    1  A    between atoms: O_4  and  C_21 
REMARK    2  A    between atoms: O_4  and  C_26 
REMARK    3  A    between atoms: O_5  and  C_22 
REMARK    4  A    between atoms: O_8  and  N_12 
REMARK    5  A    between atoms: CA_16  and  N_11 
REMARK       I    between atoms: N_11  and  C_23 
REMARK    6  A    between atoms: N_14  and  C_29 
REMARK    7  A    between atoms: CA_18  and  C_22 
REMARK    8  A    between atoms: C_19  and  C_21 
REMARK    9  A    between atoms: C_23  and  C_24 
REMARK   10  A    between atoms: C_24  and  C_25 
ROOT
ATOM      1  S   UNL d   1      42.467  -9.293  -3.785  0.00  0.00    -0.136 SA
ATOM      2  O   UNL d   1      45.548  -9.924  -1.067  0.00  0.00    -0.271 OA
ATOM      3  N   UNL d   1      44.377  -8.288  -2.243  0.00  0.00    -0.293 N 
ATOM      4  C   UNL d   1      44.112  -8.516  -3.655  0.00  0.00     0.187 C 
ATOM      5  CA  UNL d   1      45.384  -9.457  -3.617  0.00  0.00     0.211 C 
ATOM      6  C   UNL d   1      45.148  -9.396  -2.088  0.00  0.00     0.251 C 
ATOM      7  CA  UNL d   1      43.507  -7.676  -1.361  0.00  0.00     0.117 C 
ATOM      8  C   UNL d   1      42.209  -7.441  -1.710  0.00  0.00    -0.013 C 
ATOM      9  C   UNL d   1      41.614  -7.859  -3.039  0.00  0.00     0.115 C 
ENDROOT
BRANCH   5  10
ATOM     10  N   UNL d   1      45.363 -10.717  -4.454  0.00  0.00    -0.339 N 
ATOM     11  C   UNL d   1      46.374 -10.858  -5.398  0.00  0.00     0.275 C 
ATOM     12  O   UNL d   1      46.413 -11.850  -6.121  0.00  0.00    -0.266 OA
ATOM     13  H   UNL d   1      44.774 -11.509  -4.235  0.00  0.00     0.163 HD
BRANCH  11  14
ATOM     14  C   UNL d   1      47.512  -9.811  -5.535  0.00  0.00     0.180 C 
ATOM     15  N   UNL d   1      48.659  -9.734  -4.921  0.00  0.00    -0.126 NA
BRANCH  15  16
ATOM     16  O   UNL d   1      48.956 -10.690  -3.953  0.00  0.00    -0.261 OA
ATOM     17  C   UNL d   1      49.001 -10.002  -2.683  0.00  0.00     0.240 C 
ENDBRANCH  15  16
BRANCH  14  18
ATOM     18  C   UNL d   1      47.233  -8.653  -6.392  0.00  0.00     0.102 A 
ATOM     19  N   UNL d   1      46.004  -8.485  -7.015  0.00  0.00    -0.222 NA
ATOM     20  C   UNL d   1      45.932  -7.304  -7.571  0.00  0.00     0.164 A 
ATOM     21  S   UNL d   1      47.360  -6.359  -7.495  0.00  0.00    -0.062 SA
ATOM     22  C   UNL d   1      48.115  -7.600  -6.587  0.00  0.00     0.087 A 
BRANCH  20  23
ATOM     23  N   UNL d   1      44.820  -6.850  -8.162  0.00  0.00    -0.378 N 
ATOM     24  H   UNL d   1      44.846  -6.593  -9.139  0.00  0.00     0.158 HD
ATOM     25  H   UNL d   1      43.947  -7.246  -7.835  0.00  0.00     0.158 HD
ENDBRANCH  20  23
ENDBRANCH  14  18
ENDBRANCH  11  14
ENDBRANCH   5  10
BRANCH   7  26
ATOM     26  C   UNL d   1      44.077  -7.134  -0.070  0.00  0.00     0.194 C 
ATOM     27  OXT UNL d   1      44.248  -7.809   0.940  0.00  0.00    -0.645 OA
BRANCH  26  28
ATOM     28  O   UNL d   1      44.248  -5.796  -0.033  0.00  0.00    -0.772 OA
ATOM     29  H   UNL d   1      43.670  -5.281  -0.636  0.00  0.00     0.167 HD
ENDBRANCH  26  28
ENDBRANCH   7  26
BRANCH   8  30
ATOM     30  C   UNL d   1      41.186  -6.809  -0.775  0.00  0.00     0.216 C 
BRANCH  30  31
ATOM     31  O   UNL d   1      40.706  -7.784   0.165  0.00  0.00    -0.317 OA
BRANCH  31  32
ATOM     32  C   UNL d   1      39.526  -8.386  -0.136  0.00  0.00     0.255 C 
ATOM     33  O   UNL d   1      39.396  -9.522  -0.567  0.00  0.00    -0.266 OA
ATOM     34  C   UNL d   1      38.391  -7.451   0.154  0.00  0.00     0.126 C 
ENDBRANCH  31  32
ENDBRANCH  30  31
ENDBRANCH   8  30
TORSDOF 10
ENDMDL
MODEL 7
REMARK VINA RESULT:      -6.1      5.551      8.334
REMARK  10 active torsions:
REMARK  status: ('A' for Active; 'I' for Inactive)
REMARK    1  A    between atoms: O_4  and  C_21 
REMARK    2  A    between atoms: O_4  and  C_26 
REMARK    3  A    between atoms: O_5  and  C_22 
REMARK    4  A    between atoms: O_8  and  N_12 
REMARK    5  A    between atoms: CA_16  and  N_11 
REMARK       I    between atoms: N_11  and  C_23 
REMARK    6  A    between atoms: N_14  and  C_29 
REMARK    7  A    between atoms: CA_18  and  C_22 
REMARK    8  A    between atoms: C_19  and  C_21 
REMARK    9  A    between atoms: C_23  and  C_24 
REMARK   10  A    between atoms: C_24  and  C_25 
ROOT
ATOM      1  S   UNL d   1      46.234 -11.165  -0.477  0.00  0.00    -0.136 SA
ATOM      2  O   UNL d   1      44.469  -8.942   2.559  0.00  0.00    -0.271 OA
ATOM      3  N   UNL d   1      45.671  -8.793   0.568  0.00  0.00    -0.293 N 
ATOM      4  C   UNL d   1      46.817  -9.672   0.392  0.00  0.00     0.187 C 
ATOM      5  CA  UNL d   1      46.882  -9.704   1.973  0.00  0.00     0.211 C 
ATOM      6  C   UNL d   1      45.436  -9.163   1.854  0.00  0.00     0.251 C 
ATOM      7  CA  UNL d   1      44.790  -8.430  -0.432  0.00  0.00     0.117 C 
ATOM      8  C   UNL d   1      44.798  -9.068  -1.637  0.00  0.00    -0.013 C 
ATOM      9  C   UNL d   1      45.717 -10.229  -1.960  0.00  0.00     0.115 C 
ENDROOT
BRANCH   5  10
ATOM     10  N   UNL d   1      47.277 -11.001   2.644  0.00  0.00    -0.339 N 
ATOM     11  C   UNL d   1      48.639 -11.257   2.758  0.00  0.00     0.275 C 
ATOM     12  O   UNL d   1      49.033 -12.297   3.281  0.00  0.00    -0.266 OA
ATOM     13  H   UNL d   1      46.620 -11.576   3.153  0.00  0.00     0.163 HD
BRANCH  11  14
ATOM     14  C   UNL d   1      49.703 -10.228   2.290  0.00  0.00     0.180 C 
ATOM     15  N   UNL d   1      50.266 -10.076   1.124  0.00  0.00    -0.126 NA
BRANCH  15  16
ATOM     16  O   UNL d   1      49.931 -10.965   0.107  0.00  0.00    -0.261 OA
ATOM     17  C   UNL d   1      50.206 -10.295  -1.143  0.00  0.00     0.240 C 
ENDBRANCH  15  16
BRANCH  14  18
ATOM     18  C   UNL d   1      50.268  -9.357   3.327  0.00  0.00     0.102 A 
ATOM     19  N   UNL d   1      51.490  -8.720   3.159  0.00  0.00    -0.222 NA
ATOM     20  C   UNL d   1      51.696  -7.865   4.127  0.00  0.00     0.164 A 
ATOM     21  S   UNL d   1      50.510  -7.847   5.366  0.00  0.00    -0.062 SA
ATOM     22  C   UNL d   1      49.615  -9.027   4.505  0.00  0.00     0.087 A 
BRANCH  20  23
ATOM     23  N   UNL d   1      52.758  -7.052   4.159  0.00  0.00    -0.378 N 
ATOM     24  H   UNL d   1      52.620  -6.059   4.289  0.00  0.00     0.158 HD
ATOM     25  H   UNL d   1      53.603  -7.436   4.566  0.00  0.00     0.158 HD
ENDBRANCH  20  23
ENDBRANCH  14  18
ENDBRANCH  11  14
ENDBRANCH   5  10
BRANCH   7  26
ATOM     26  C   UNL d   1      43.934  -7.204  -0.204  0.00  0.00     0.194 C 
ATOM     27  OXT UNL d   1      42.715  -7.235  -0.075  0.00  0.00    -0.645 OA
BRANCH  26  28
ATOM     28  O   UNL d   1      44.579  -6.024  -0.310  0.00  0.00    -0.772 OA
ATOM     29  H   UNL d   1      45.094  -5.752   0.480  0.00  0.00     0.167 HD
ENDBRANCH  26  28
ENDBRANCH   7  26
BRANCH   8  30
ATOM     30  C   UNL d   1      43.829  -8.747  -2.767  0.00  0.00     0.216 C 
BRANCH  30  31
ATOM     31  O   UNL d   1      42.705  -9.642  -2.725  0.00  0.00    -0.317 OA
BRANCH  31  32
ATOM     32  C   UNL d   1      41.473  -9.070  -2.748  0.00  0.00     0.255 C 
ATOM     33  O   UNL d   1      40.610  -9.204  -1.895  0.00  0.00    -0.266 OA
ATOM     34  C   UNL d   1      41.328  -8.229  -3.980  0.00  0.00     0.126 C 
ENDBRANCH  31  32
ENDBRANCH  30  31
ENDBRANCH   8  30
TORSDOF 10
ENDMDL
MODEL 8
REMARK VINA RESULT:      -6.0     19.571     22.384
REMARK  10 active torsions:
REMARK  status: ('A' for Active; 'I' for Inactive)
REMARK    1  A    between atoms: O_4  and  C_21 
REMARK    2  A    between atoms: O_4  and  C_26 
REMARK    3  A    between atoms: O_5  and  C_22 
REMARK    4  A    between atoms: O_8  and  N_12 
REMARK    5  A    between atoms: CA_16  and  N_11 
REMARK       I    between atoms: N_11  and  C_23 
REMARK    6  A    between atoms: N_14  and  C_29 
REMARK    7  A    between atoms: CA_18  and  C_22 
REMARK    8  A    between atoms: C_19  and  C_21 
REMARK    9  A    between atoms: C_23  and  C_24 
REMARK   10  A    between atoms: C_24  and  C_25 
ROOT
ATOM      1  S   UNL d   1      21.722  -1.671 -11.911  0.00  0.00    -0.136 SA
ATOM      2  O   UNL d   1      23.262  -5.477 -11.259  0.00  0.00    -0.271 OA
ATOM      3  N   UNL d   1      22.552  -3.986 -12.904  0.00  0.00    -0.293 N 
ATOM      4  C   UNL d   1      21.305  -3.268 -12.686  0.00  0.00     0.187 C 
ATOM      5  CA  UNL d   1      20.914  -4.478 -11.745  0.00  0.00     0.211 C 
ATOM      6  C   UNL d   1      22.435  -4.763 -11.795  0.00  0.00     0.251 C 
ATOM      7  CA  UNL d   1      23.676  -3.458 -13.509  0.00  0.00     0.117 C 
ATOM      8  C   UNL d   1      23.778  -2.119 -13.747  0.00  0.00    -0.013 C 
ATOM      9  C   UNL d   1      22.718  -1.116 -13.339  0.00  0.00     0.115 C 
ENDROOT
BRANCH   5  10
ATOM     10  N   UNL d   1      20.122  -4.178 -10.491  0.00  0.00    -0.339 N 
ATOM     11  C   UNL d   1      18.806  -4.627 -10.459  0.00  0.00     0.275 C 
ATOM     12  O   UNL d   1      18.101  -4.408  -9.478  0.00  0.00    -0.266 OA
ATOM     13  H   UNL d   1      20.552  -3.840  -9.641  0.00  0.00     0.163 HD
BRANCH  11  14
ATOM     14  C   UNL d   1      18.202  -5.461 -11.620  0.00  0.00     0.180 C 
ATOM     15  N   UNL d   1      17.695  -5.073 -12.757  0.00  0.00    -0.126 NA
BRANCH  15  16
ATOM     16  O   UNL d   1      17.622  -3.706 -13.015  0.00  0.00    -0.261 OA
ATOM     17  C   UNL d   1      17.716  -3.545 -14.448  0.00  0.00     0.240 C 
ENDBRANCH  15  16
BRANCH  14  18
ATOM     18  C   UNL d   1      18.057  -6.902 -11.381  0.00  0.00     0.102 A 
ATOM     19  N   UNL d   1      18.644  -7.523 -10.288  0.00  0.00    -0.222 NA
ATOM     20  C   UNL d   1      18.229  -8.760 -10.188  0.00  0.00     0.164 A 
ATOM     21  S   UNL d   1      17.209  -9.304 -11.454  0.00  0.00    -0.062 SA
ATOM     22  C   UNL d   1      17.271  -7.743 -12.156  0.00  0.00     0.087 A 
BRANCH  20  23
ATOM     23  N   UNL d   1      18.571  -9.556  -9.169  0.00  0.00    -0.378 N 
ATOM     24  H   UNL d   1      17.969  -9.614  -8.360  0.00  0.00     0.158 HD
ATOM     25  H   UNL d   1      19.063 -10.408  -9.413  0.00  0.00     0.158 HD
ENDBRANCH  20  23
ENDBRANCH  14  18
ENDBRANCH  11  14
ENDBRANCH   5  10
BRANCH   7  26
ATOM     26  C   UNL d   1      24.709  -4.426 -14.042  0.00  0.00     0.194 C 
ATOM     27  OXT UNL d   1      24.678  -4.910 -15.168  0.00  0.00    -0.645 OA
BRANCH  26  28
ATOM     28  O   UNL d   1      25.607  -4.865 -13.135  0.00  0.00    -0.772 OA
ATOM     29  H   UNL d   1      25.268  -5.523 -12.491  0.00  0.00     0.167 HD
ENDBRANCH  26  28
ENDBRANCH   7  26
BRANCH   8  30
ATOM     30  C   UNL d   1      25.003  -1.466 -14.372  0.00  0.00     0.216 C 
BRANCH  30  31
ATOM     31  O   UNL d   1      25.553  -0.486 -13.476  0.00  0.00    -0.317 OA
BRANCH  31  32
ATOM     32  C   UNL d   1      26.797  -0.026 -13.770  0.00  0.00     0.255 C 
ATOM     33  O   UNL d   1      27.403   0.835 -13.151  0.00  0.00    -0.266 OA
ATOM     34  C   UNL d   1      27.334  -0.747 -14.970  0.00  0.00     0.126 C 
ENDBRANCH  31  32
ENDBRANCH  30  31
ENDBRANCH   8  30
TORSDOF 10
ENDMDL
MODEL 9
REMARK VINA RESULT:      -5.9      5.641      7.994
REMARK  10 active torsions:
REMARK  status: ('A' for Active; 'I' for Inactive)
REMARK    1  A    between atoms: O_4  and  C_21 
REMARK    2  A    between atoms: O_4  and  C_26 
REMARK    3  A    between atoms: O_5  and  C_22 
REMARK    4  A    between atoms: O_8  and  N_12 
REMARK    5  A    between atoms: CA_16  and  N_11 
REMARK       I    between atoms: N_11  and  C_23 
REMARK    6  A    between atoms: N_14  and  C_29 
REMARK    7  A    between atoms: CA_18  and  C_22 
REMARK    8  A    between atoms: C_19  and  C_21 
REMARK    9  A    between atoms: C_23  and  C_24 
REMARK   10  A    between atoms: C_24  and  C_25 
ROOT
ATOM      1  S   UNL d   1      37.729  -5.824  -9.278  0.00  0.00    -0.136 SA
ATOM      2  O   UNL d   1      39.933  -9.123 -10.519  0.00  0.00    -0.271 OA
ATOM      3  N   UNL d   1      37.802  -8.398  -9.912  0.00  0.00    -0.293 N 
ATOM      4  C   UNL d   1      37.674  -7.562  -8.729  0.00  0.00     0.187 C 
ATOM      5  CA  UNL d   1      39.022  -8.240  -8.252  0.00  0.00     0.211 C 
ATOM      6  C   UNL d   1      39.130  -8.634  -9.746  0.00  0.00     0.251 C 
ATOM      7  CA  UNL d   1      37.059  -8.256 -11.068  0.00  0.00     0.117 C 
ATOM      8  C   UNL d   1      36.291  -7.148 -11.273  0.00  0.00    -0.013 C 
ATOM      9  C   UNL d   1      36.222  -5.989 -10.301  0.00  0.00     0.115 C 
ENDROOT
BRANCH   5  10
ATOM     10  N   UNL d   1      40.020  -7.388  -7.500  0.00  0.00    -0.339 N 
ATOM     11  C   UNL d   1      40.154  -7.636  -6.138  0.00  0.00     0.275 C 
ATOM     12  O   UNL d   1      40.937  -6.974  -5.461  0.00  0.00    -0.266 OA
ATOM     13  H   UNL d   1      40.695  -6.797  -7.965  0.00  0.00     0.163 HD
BRANCH  11  14
ATOM     14  C   UNL d   1      39.375  -8.782  -5.439  0.00  0.00     0.180 C 
ATOM     15  N   UNL d   1      39.673 -10.045  -5.314  0.00  0.00    -0.126 NA
BRANCH  15  16
ATOM     16  O   UNL d   1      40.843 -10.509  -5.908  0.00  0.00    -0.261 OA
ATOM     17  C   UNL d   1      40.446 -11.391  -6.982  0.00  0.00     0.240 C 
ENDBRANCH  15  16
BRANCH  14  18
ATOM     18  C   UNL d   1      38.037  -8.447  -4.935  0.00  0.00     0.102 A 
ATOM     19  N   UNL d   1      37.568  -7.142  -4.920  0.00  0.00    -0.222 NA
ATOM     20  C   UNL d   1      36.300  -7.115  -4.602  0.00  0.00     0.164 A 
ATOM     21  S   UNL d   1      35.609  -8.627  -4.181  0.00  0.00    -0.062 SA
ATOM     22  C   UNL d   1      37.107  -9.388  -4.517  0.00  0.00     0.087 A 
BRANCH  20  23
ATOM     23  N   UNL d   1      35.578  -5.989  -4.602  0.00  0.00    -0.378 N 
ATOM     24  H   UNL d   1      35.477  -5.463  -5.459  0.00  0.00     0.158 HD
ATOM     25  H   UNL d   1      34.780  -5.969  -3.978  0.00  0.00     0.158 HD
ENDBRANCH  20  23
ENDBRANCH  14  18
ENDBRANCH  11  14
ENDBRANCH   5  10
BRANCH   7  26
ATOM     26  C   UNL d   1      36.999  -9.433 -12.016  0.00  0.00     0.194 C 
ATOM     27  OXT UNL d   1      37.739  -9.570 -12.985  0.00  0.00    -0.645 OA
BRANCH  26  28
ATOM     28  O   UNL d   1      35.959 -10.271 -11.828  0.00  0.00    -0.772 OA
ATOM     29  H   UNL d   1      35.361 -10.380 -12.599  0.00  0.00     0.167 HD
ENDBRANCH  26  28
ENDBRANCH   7  26
BRANCH   8  30
ATOM     30  C   UNL d   1      35.480  -6.908 -12.540  0.00  0.00     0.216 C 
BRANCH  30  31
ATOM     31  O   UNL d   1      36.039  -5.813 -13.285  0.00  0.00    -0.317 OA
BRANCH  31  32
ATOM     32  C   UNL d   1      37.230  -6.041 -13.897  0.00  0.00     0.255 C 
ATOM     33  O   UNL d   1      37.438  -6.879 -14.761  0.00  0.00    -0.266 OA
ATOM     34  C   UNL d   1      38.263  -5.095 -13.364  0.00  0.00     0.126 C 
ENDBRANCH  31  32
ENDBRANCH  30  31
ENDBRANCH   8  30
TORSDOF 10
ENDMDL
